# generated using pymatgen
data_TiNi3Sn2(PO4)6
_symmetry_space_group_name_H-M   'P 1'
_cell_length_a   8.67014424
_cell_length_b   8.67014424
_cell_length_c   20.55641314
_cell_angle_alpha   90.00000000
_cell_angle_beta   90.00000000
_cell_angle_gamma   120.00000000
_symmetry_Int_Tables_number   1
_chemical_formula_structural   TiNi3Sn2(PO4)6
_chemical_formula_sum   'Ti3 Ni9 Sn6 P18 O72'
_cell_volume   1338.22954568
_cell_formula_units_Z   3
loop_
 _symmetry_equiv_pos_site_id
 _symmetry_equiv_pos_as_xyz
  1  'x, y, z'
loop_
 _atom_site_type_symbol
 _atom_site_label
 _atom_site_symmetry_multiplicity
 _atom_site_fract_x
 _atom_site_fract_y
 _atom_site_fract_z
 _atom_site_occupancy
  Ti  Ti0  1  0.33333333  0.66666667  0.51746067  1
  Ti  Ti1  1  0.00000000  0.00000000  0.85079400  1
  Ti  Ti2  1  0.66666667  0.33333333  0.18412733  1
  Ni  Ni3  1  0.33333333  0.66666667  0.81591967  1
  Ni  Ni4  1  0.33333333  0.66666667  0.01904767  1
  Ni  Ni5  1  0.33333333  0.66666667  0.31261767  1
  Ni  Ni6  1  0.00000000  0.00000000  0.14925300  1
  Ni  Ni7  1  0.00000000  0.00000000  0.35238100  1
  Ni  Ni8  1  0.00000000  0.00000000  0.64595100  1
  Ni  Ni9  1  0.66666667  0.33333333  0.48258633  1
  Ni  Ni10  1  0.66666667  0.33333333  0.68571433  1
  Ni  Ni11  1  0.66666667  0.33333333  0.97928433  1
  Sn  Sn12  1  0.33333333  0.66666667  0.66902167  1
  Sn  Sn13  1  0.33333333  0.66666667  0.16841967  1
  Sn  Sn14  1  0.00000000  0.00000000  0.00235500  1
  Sn  Sn15  1  0.00000000  0.00000000  0.50175300  1
  Sn  Sn16  1  0.66666667  0.33333333  0.33568833  1
  Sn  Sn17  1  0.66666667  0.33333333  0.83508633  1
  P  P18  1  0.66591100  0.62944000  0.08161300  1
  P  P19  1  0.96352900  0.33408900  0.08161300  1
  P  P20  1  0.29377833  0.29426367  0.24989367  1
  P  P21  1  0.70573633  0.99951467  0.24989367  1
  P  P22  1  0.00048533  0.70622167  0.24989367  1
  P  P23  1  0.37056000  0.03647100  0.08161300  1
  P  P24  1  0.33257767  0.96277333  0.41494633  1
  P  P25  1  0.63019567  0.66742233  0.41494633  1
  P  P26  1  0.96044500  0.62759700  0.58322700  1
  P  P27  1  0.37240300  0.33284800  0.58322700  1
  P  P28  1  0.66715200  0.03955500  0.58322700  1
  P  P29  1  0.03722667  0.36980433  0.41494633  1
  P  P30  1  0.99924433  0.29610667  0.74827967  1
  P  P31  1  0.29686233  0.00075567  0.74827967  1
  P  P32  1  0.62711167  0.96093033  0.91656033  1
  P  P33  1  0.03906967  0.66618133  0.91656033  1
  P  P34  1  0.33381867  0.37288833  0.91656033  1
  P  P35  1  0.70389333  0.70313767  0.74827967  1
  O  O36  1  0.33745833  0.46186167  0.97936467  1
  O  O37  1  0.53813833  0.87559667  0.97936467  1
  O  O38  1  0.83022000  0.82330400  0.07457700  1
  O  O39  1  0.12440333  0.66254167  0.97936467  1
  O  O40  1  0.34712467  0.86407133  0.47636133  1
  O  O41  1  0.50068267  0.65186133  0.09669933  1
  O  O42  1  0.99308400  0.16978000  0.07457700  1
  O  O43  1  0.15117867  0.49931733  0.09669933  1
  O  O44  1  0.21253667  0.19990133  0.18743333  1
  O  O45  1  0.34813867  0.84882133  0.09669933  1
  O  O46  1  0.49420533  0.32430067  0.25830367  1
  O  O47  1  0.80009867  0.01263533  0.18743333  1
  O  O48  1  0.51694667  0.65287533  0.47636133  1
  O  O49  1  0.17669600  0.00691600  0.07457700  1
  O  O50  1  0.32904033  0.49121267  0.24038267  1
  O  O51  1  0.13592867  0.48305333  0.47636133  1
  O  O52  1  0.50878733  0.83782767  0.24038267  1
  O  O53  1  0.67569933  0.16990467  0.25830367  1
  O  O54  1  0.16217233  0.67095967  0.24038267  1
  O  O55  1  0.98736467  0.78746333  0.18743333  1
  O  O56  1  0.54203067  0.67747133  0.35454333  1
  O  O57  1  0.83009533  0.50579467  0.25830367  1
  O  O58  1  0.13544067  0.45796933  0.35454333  1
  O  O59  1  0.32252867  0.86455933  0.35454333  1
  O  O60  1  0.00412500  0.79519500  0.31269800  1
  O  O61  1  0.20480500  0.20893000  0.31269800  1
  O  O62  1  0.49688667  0.15663733  0.40791033  1
  O  O63  1  0.79107000  0.99587500  0.31269800  1
  O  O64  1  0.01379133  0.19740467  0.80969467  1
  O  O65  1  0.16734933  0.98519467  0.43003267  1
  O  O66  1  0.65975067  0.50311333  0.40791033  1
  O  O67  1  0.81784533  0.83265067  0.43003267  1
  O  O68  1  0.87920333  0.53323467  0.52076667  1
  O  O69  1  0.01480533  0.18215467  0.43003267  1
  O  O70  1  0.16087200  0.65763400  0.59163700  1
  O  O71  1  0.46676533  0.34596867  0.52076667  1
  O  O72  1  0.18361333  0.98620867  0.80969467  1
  O  O73  1  0.84336267  0.34024933  0.40791033  1
  O  O74  1  0.99570700  0.82454600  0.57371600  1
  O  O75  1  0.80259533  0.81638667  0.80969467  1
  O  O76  1  0.17545400  0.17116100  0.57371600  1
  O  O77  1  0.34236600  0.50323800  0.59163700  1
  O  O78  1  0.82883900  0.00429300  0.57371600  1
  O  O79  1  0.65403133  0.12079667  0.52076667  1
  O  O80  1  0.20869733  0.01080467  0.68787667  1
  O  O81  1  0.49676200  0.83912800  0.59163700  1
  O  O82  1  0.80210733  0.79130267  0.68787667  1
  O  O83  1  0.98919533  0.19789267  0.68787667  1
  O  O84  1  0.67079167  0.12852833  0.64603133  1
  O  O85  1  0.87147167  0.54226333  0.64603133  1
  O  O86  1  0.16355333  0.48997067  0.74124367  1
  O  O87  1  0.45773667  0.32920833  0.64603133  1
  O  O88  1  0.68045800  0.53073800  0.14302800  1
  O  O89  1  0.83401600  0.31852800  0.76336600  1
  O  O90  1  0.32641733  0.83644667  0.74124367  1
  O  O91  1  0.48451200  0.16598400  0.76336600  1
  O  O92  1  0.54587000  0.86656800  0.85410000  1
  O  O93  1  0.68147200  0.51548800  0.76336600  1
  O  O94  1  0.82753867  0.99096733  0.92497033  1
  O  O95  1  0.13343200  0.67930200  0.85410000  1
  O  O96  1  0.85028000  0.31954200  0.14302800  1
  O  O97  1  0.51002933  0.67358267  0.74124367  1
  O  O98  1  0.66237367  0.15787933  0.90704933  1
  O  O99  1  0.46926200  0.14972000  0.14302800  1
  O  O100  1  0.84212067  0.50449433  0.90704933  1
  O  O101  1  0.00903267  0.83657133  0.92497033  1
  O  O102  1  0.49550567  0.33762633  0.90704933  1
  O  O103  1  0.32069800  0.45413000  0.85410000  1
  O  O104  1  0.87536400  0.34413800  0.02121000  1
  O  O105  1  0.16342867  0.17246133  0.92497033  1
  O  O106  1  0.46877400  0.12463600  0.02121000  1
  O  O107  1  0.65586200  0.53122600  0.02121000  1
