# generated using pymatgen
data_LiCuO2
_symmetry_space_group_name_H-M   'P 1'
_cell_length_a   10.05423400
_cell_length_b   2.73552600
_cell_length_c   7.38749139
_cell_angle_alpha   90.00000000
_cell_angle_beta   120.58225011
_cell_angle_gamma   90.00000000
_symmetry_Int_Tables_number   1
_chemical_formula_structural   LiCuO2
_chemical_formula_sum   'Li4 Cu4 O8'
_cell_volume   174.91996087
_cell_formula_units_Z   4
loop_
 _symmetry_equiv_pos_site_id
 _symmetry_equiv_pos_as_xyz
  1  'x, y, z'
loop_
 _atom_site_type_symbol
 _atom_site_label
 _atom_site_symmetry_multiplicity
 _atom_site_fract_x
 _atom_site_fract_y
 _atom_site_fract_z
 _atom_site_occupancy
  Li  Li0  1  0.15843600  0.50000000  0.88871900  1
  Li  Li1  1  0.94450700  0.00000000  0.42159500  1
  Li  Li2  1  0.65843600  0.00000000  0.88871900  1
  Li  Li3  1  0.44450700  0.50000000  0.42159500  1
  Cu  Cu4  1  0.63602100  0.50000000  0.26320200  1
  Cu  Cu5  1  0.34344500  0.50000000  0.73180300  1
  Cu  Cu6  1  0.13602100  0.00000000  0.26320200  1
  Cu  Cu7  1  0.84344500  0.00000000  0.73180300  1
  O  O8  1  0.26318300  0.00000000  0.81325800  1
  O  O9  1  0.93508800  0.50000000  0.66181400  1
  O  O10  1  0.06516500  0.50000000  0.35902500  1
  O  O11  1  0.71915600  0.00000000  0.18448400  1
  O  O12  1  0.76318300  0.50000000  0.81325800  1
  O  O13  1  0.43508800  0.00000000  0.66181400  1
  O  O14  1  0.56516500  0.00000000  0.35902500  1
  O  O15  1  0.21915600  0.50000000  0.18448400  1
