# generated using pymatgen
data_Li4TiV3O8
_symmetry_space_group_name_H-M   'P 1'
_cell_length_a   10.30865400
_cell_length_b   6.00819200
_cell_length_c   6.00488833
_cell_angle_alpha   90.00000000
_cell_angle_beta   125.15078971
_cell_angle_gamma   90.00000000
_symmetry_Int_Tables_number   1
_chemical_formula_structural   Li4TiV3O8
_chemical_formula_sum   'Li8 Ti2 V6 O16'
_cell_volume   304.09736944
_cell_formula_units_Z   2
loop_
 _symmetry_equiv_pos_site_id
 _symmetry_equiv_pos_as_xyz
  1  'x, y, z'
loop_
 _atom_site_type_symbol
 _atom_site_label
 _atom_site_symmetry_multiplicity
 _atom_site_fract_x
 _atom_site_fract_y
 _atom_site_fract_z
 _atom_site_occupancy
  Li  Li0  1  0.75000000  0.75000000  0.00000000  1
  Li  Li1  1  0.25000000  0.75000000  0.00000000  1
  Li  Li2  1  0.00000000  0.00000000  0.00000000  1
  Li  Li3  1  0.00000000  0.50000000  0.00000000  1
  Li  Li4  1  0.25000000  0.25000000  0.00000000  1
  Li  Li5  1  0.75000000  0.25000000  0.00000000  1
  Li  Li6  1  0.50000000  0.50000000  0.00000000  1
  Li  Li7  1  0.50000000  0.00000000  0.00000000  1
  Ti  Ti8  1  0.00000000  0.00000000  0.50000000  1
  Ti  Ti9  1  0.50000000  0.50000000  0.50000000  1
  V  V10  1  0.25000000  0.75000000  0.50000000  1
  V  V11  1  0.25000000  0.25000000  0.50000000  1
  V  V12  1  0.50000000  0.00000000  0.50000000  1
  V  V13  1  0.75000000  0.25000000  0.50000000  1
  V  V14  1  0.75000000  0.75000000  0.50000000  1
  V  V15  1  0.00000000  0.50000000  0.50000000  1
  O  O16  1  0.99277600  0.75767900  0.72979900  1
  O  O17  1  0.49277600  0.74232100  0.72979900  1
  O  O18  1  0.23678400  0.00000000  0.73251900  1
  O  O19  1  0.25026500  0.00000000  0.27117700  1
  O  O20  1  0.24973500  0.50000000  0.72882300  1
  O  O21  1  0.26321600  0.50000000  0.26748100  1
  O  O22  1  0.00722400  0.75767900  0.27020100  1
  O  O23  1  0.50722400  0.74232100  0.27020100  1
  O  O24  1  0.49277600  0.25767900  0.72979900  1
  O  O25  1  0.99277600  0.24232100  0.72979900  1
  O  O26  1  0.73678400  0.50000000  0.73251900  1
  O  O27  1  0.75026500  0.50000000  0.27117700  1
  O  O28  1  0.74973500  0.00000000  0.72882300  1
  O  O29  1  0.76321600  0.00000000  0.26748100  1
  O  O30  1  0.50722400  0.25767900  0.27020100  1
  O  O31  1  0.00722400  0.24232100  0.27020100  1
