# generated using pymatgen
data_Na2LiMnPCO7
_symmetry_space_group_name_H-M   'P 1'
_cell_length_a   5.29361136
_cell_length_b   6.88263100
_cell_length_c   8.85071421
_cell_angle_alpha   90.00000000
_cell_angle_beta   94.28593553
_cell_angle_gamma   90.00000000
_symmetry_Int_Tables_number   1
_chemical_formula_structural   Na2LiMnPCO7
_chemical_formula_sum   'Na4 Li2 Mn2 P2 C2 O14'
_cell_volume   321.56491340
_cell_formula_units_Z   2
loop_
 _symmetry_equiv_pos_site_id
 _symmetry_equiv_pos_as_xyz
  1  'x, y, z'
loop_
 _atom_site_type_symbol
 _atom_site_label
 _atom_site_symmetry_multiplicity
 _atom_site_fract_x
 _atom_site_fract_y
 _atom_site_fract_z
 _atom_site_occupancy
  Na  Na0  1  0.21432050  0.00357600  0.75288600  1
  Na  Na1  1  0.21432050  0.49642400  0.75288600  1
  Na  Na2  1  0.78567950  0.50357600  0.24711400  1
  Na  Na3  1  0.78567950  0.99642400  0.24711400  1
  Li  Li4  1  0.62166950  0.75000000  0.62349600  1
  Li  Li5  1  0.37833050  0.25000000  0.37650400  1
  Mn  Mn6  1  0.29668950  0.75000000  0.14182200  1
  Mn  Mn7  1  0.70331050  0.25000000  0.85817800  1
  P  P8  1  0.78260950  0.75000000  0.90901400  1
  P  P9  1  0.21739050  0.25000000  0.09098600  1
  C  C10  1  0.73809050  0.25000000  0.55682100  1
  C  C11  1  0.26190950  0.75000000  0.44317900  1
  O  O12  1  0.23220550  0.75000000  0.58690500  1
  O  O13  1  0.76779450  0.25000000  0.41309500  1
  O  O14  1  0.50726750  0.25000000  0.60143000  1
  O  O15  1  0.49273250  0.75000000  0.39857000  1
  O  O16  1  0.92964650  0.25000000  0.65713100  1
  O  O17  1  0.07035350  0.75000000  0.34286900  1
  O  O18  1  0.32759850  0.25000000  0.93329600  1
  O  O19  1  0.67240150  0.75000000  0.06670400  1
  O  O20  1  0.07808350  0.75000000  0.93197300  1
  O  O21  1  0.92191650  0.25000000  0.06802700  1
  O  O22  1  0.69285550  0.92971800  0.81151500  1
  O  O23  1  0.69285550  0.57028200  0.81151500  1
  O  O24  1  0.30714450  0.42971800  0.18848500  1
  O  O25  1  0.30714450  0.07028200  0.18848500  1
