# generated using pymatgen
data_Li3NbFe3O8
_symmetry_space_group_name_H-M   'P 1'
_cell_length_a   10.51213600
_cell_length_b   6.14035200
_cell_length_c   6.13721183
_cell_angle_alpha   90.00000000
_cell_angle_beta   125.58923113
_cell_angle_gamma   90.00000000
_symmetry_Int_Tables_number   1
_chemical_formula_structural   Li3NbFe3O8
_chemical_formula_sum   'Li6 Nb2 Fe6 O16'
_cell_volume   322.15000855
_cell_formula_units_Z   2
loop_
 _symmetry_equiv_pos_site_id
 _symmetry_equiv_pos_as_xyz
  1  'x, y, z'
loop_
 _atom_site_type_symbol
 _atom_site_label
 _atom_site_symmetry_multiplicity
 _atom_site_fract_x
 _atom_site_fract_y
 _atom_site_fract_z
 _atom_site_occupancy
  Li  Li0  1  0.25000000  0.75000000  0.00000000  1
  Li  Li1  1  0.00000000  0.00000000  0.50000000  1
  Li  Li2  1  0.75000000  0.75000000  0.00000000  1
  Li  Li3  1  0.75000000  0.25000000  0.00000000  1
  Li  Li4  1  0.50000000  0.50000000  0.50000000  1
  Li  Li5  1  0.25000000  0.25000000  0.00000000  1
  Nb  Nb6  1  0.00000000  0.00000000  0.00000000  1
  Nb  Nb7  1  0.50000000  0.50000000  0.00000000  1
  Fe  Fe8  1  0.25000000  0.25000000  0.50000000  1
  Fe  Fe9  1  0.00000000  0.50000000  0.00000000  1
  Fe  Fe10  1  0.25000000  0.75000000  0.50000000  1
  Fe  Fe11  1  0.75000000  0.75000000  0.50000000  1
  Fe  Fe12  1  0.50000000  0.00000000  0.00000000  1
  Fe  Fe13  1  0.75000000  0.25000000  0.50000000  1
  O  O14  1  0.24418800  0.50000000  0.27302300  1
  O  O15  1  0.48994050  0.72967350  0.75600200  1
  O  O16  1  0.23686200  0.00000000  0.24703500  1
  O  O17  1  0.25581200  0.00000000  0.72697700  1
  O  O18  1  0.98994050  0.77032650  0.75600200  1
  O  O19  1  0.01005950  0.77032650  0.24399800  1
  O  O20  1  0.26313800  0.50000000  0.75296500  1
  O  O21  1  0.51005950  0.72967350  0.24399800  1
  O  O22  1  0.74418800  0.00000000  0.27302300  1
  O  O23  1  0.98994050  0.22967350  0.75600200  1
  O  O24  1  0.73686200  0.50000000  0.24703500  1
  O  O25  1  0.75581200  0.50000000  0.72697700  1
  O  O26  1  0.48994050  0.27032650  0.75600200  1
  O  O27  1  0.51005950  0.27032650  0.24399800  1
  O  O28  1  0.76313800  0.00000000  0.75296500  1
  O  O29  1  0.01005950  0.22967350  0.24399800  1
