# generated using pymatgen
data_Ti2N2O
_symmetry_space_group_name_H-M   'P 1'
_cell_length_a   8.21508600
_cell_length_b   8.21865437
_cell_length_c   8.22688134
_cell_angle_alpha   109.48817089
_cell_angle_beta   109.44636717
_cell_angle_gamma   109.39916084
_symmetry_Int_Tables_number   1
_chemical_formula_structural   Ti2N2O
_chemical_formula_sum   'Ti16 N16 O8'
_cell_volume   428.00990685
_cell_formula_units_Z   8
loop_
 _symmetry_equiv_pos_site_id
 _symmetry_equiv_pos_as_xyz
  1  'x, y, z'
loop_
 _atom_site_type_symbol
 _atom_site_label
 _atom_site_symmetry_multiplicity
 _atom_site_fract_x
 _atom_site_fract_y
 _atom_site_fract_z
 _atom_site_occupancy
  Ti  Ti0  1  0.49886600  0.99790100  0.01114300  1
  Ti  Ti1  1  0.53984000  0.29105300  0.74053400  1
  Ti  Ti2  1  0.74754800  0.45962100  0.21818300  1
  Ti  Ti3  1  0.75115700  0.96178200  0.70862400  1
  Ti  Ti4  1  0.96190200  0.20807200  0.26577900  1
  Ti  Ti5  1  0.51343000  0.51468800  0.51570100  1
  Ti  Ti6  1  0.20850200  0.74267100  0.44481500  1
  Ti  Ti7  1  0.29269300  0.24910800  0.04183400  1
  Ti  Ti8  1  0.00524800  0.49699700  0.98540000  1
  Ti  Ti9  1  0.99843100  0.99623200  0.49949000  1
  Ti  Ti10  1  0.70924600  0.75165500  0.96280600  1
  Ti  Ti11  1  0.79372800  0.26046600  0.54840000  1
  Ti  Ti12  1  0.03729400  0.79797700  0.74696300  1
  Ti  Ti13  1  0.24920300  0.03702200  0.28349600  1
  Ti  Ti14  1  0.25322100  0.54189800  0.79438200  1
  Ti  Ti15  1  0.45248600  0.69967300  0.24427200  1
  N  N16  1  0.26953000  0.99410100  0.04151600  1
  N  N17  1  0.72417800  0.23594700  0.27026800  1
  N  N18  1  0.76640700  0.22519600  0.77551500  1
  N  N19  1  0.53447500  0.26050900  0.48722700  1
  N  N20  1  0.95304600  0.72616900  0.45844400  1
  N  N21  1  0.04025000  0.05294300  0.77416900  1
  N  N22  1  0.77605400  0.72637500  0.73646200  1
  N  N23  1  0.54666900  0.50527600  0.27203700  1
  N  N24  1  0.45893600  0.73649700  0.51111000  1
  N  N25  1  0.22507800  0.45030700  0.98793500  1
  N  N26  1  0.99001800  0.54078400  0.76545600  1
  N  N27  1  0.22953100  0.77323700  0.22569300  1
  N  N28  1  0.95934600  0.94960300  0.22515600  1
  N  N29  1  0.04972800  0.27476500  0.53734300  1
  N  N30  1  0.45263700  0.48952400  0.72802100  1
  N  N31  1  0.51168700  0.78053300  0.05309300  1
  O  O32  1  0.72993800  0.00451000  0.95513000  1
  O  O33  1  0.27733700  0.04251400  0.55493200  1
  O  O34  1  0.48823200  0.22353000  0.94584900  1
  O  O35  1  0.27601600  0.76867600  0.72641900  1
  O  O36  1  0.01297700  0.45970200  0.23810700  1
  O  O37  1  0.72704900  0.95599300  0.45014100  1
  O  O38  1  0.77069900  0.54447700  0.01072400  1
  O  O39  1  0.21738300  0.27201500  0.25742500  1
