# generated using pymatgen
data_LiVO2
_symmetry_space_group_name_H-M   'P 1'
_cell_length_a   4.03679771
_cell_length_b   4.25427617
_cell_length_c   8.73839377
_cell_angle_alpha   90.00000000
_cell_angle_beta   90.00000000
_cell_angle_gamma   90.00000000
_symmetry_Int_Tables_number   1
_chemical_formula_structural   LiVO2
_chemical_formula_sum   'Li4 V4 O8'
_cell_volume   150.07013606
_cell_formula_units_Z   4
loop_
 _symmetry_equiv_pos_site_id
 _symmetry_equiv_pos_as_xyz
  1  'x, y, z'
loop_
 _atom_site_type_symbol
 _atom_site_label
 _atom_site_symmetry_multiplicity
 _atom_site_fract_x
 _atom_site_fract_y
 _atom_site_fract_z
 _atom_site_occupancy
  Li  Li0  1  0.50000000  0.25000000  0.63851600  1
  Li  Li1  1  0.50000000  0.75000000  0.36148400  1
  Li  Li2  1  0.00000000  0.75000000  0.13851600  1
  Li  Li3  1  0.00000000  0.25000000  0.86148400  1
  V  V4  1  0.00000000  0.75000000  0.61851775  1
  V  V5  1  0.00000000  0.25000000  0.38148225  1
  V  V6  1  0.50000000  0.25000000  0.11851775  1
  V  V7  1  0.50000000  0.75000000  0.88148225  1
  O  O8  1  0.00000000  0.25000000  0.60789500  1
  O  O9  1  0.00000000  0.75000000  0.39210500  1
  O  O10  1  0.50000000  0.75000000  0.64358375  1
  O  O11  1  0.50000000  0.25000000  0.35641625  1
  O  O12  1  0.50000000  0.75000000  0.10789500  1
  O  O13  1  0.50000000  0.25000000  0.89210500  1
  O  O14  1  0.00000000  0.25000000  0.14358375  1
  O  O15  1  0.00000000  0.75000000  0.85641625  1
