# generated using pymatgen
data_Ga3NO3
_symmetry_space_group_name_H-M   'P 1'
_cell_length_a   10.33428800
_cell_length_b   5.91739600
_cell_length_c   10.35389192
_cell_angle_alpha   90.00000000
_cell_angle_beta   109.73646468
_cell_angle_gamma   90.00000000
_symmetry_Int_Tables_number   1
_chemical_formula_structural   Ga3NO3
_chemical_formula_sum   'Ga24 N8 O24'
_cell_volume   595.96738727
_cell_formula_units_Z   8
loop_
 _symmetry_equiv_pos_site_id
 _symmetry_equiv_pos_as_xyz
  1  'x, y, z'
loop_
 _atom_site_type_symbol
 _atom_site_label
 _atom_site_symmetry_multiplicity
 _atom_site_fract_x
 _atom_site_fract_y
 _atom_site_fract_z
 _atom_site_occupancy
  Ga  Ga0  1  0.00000000  0.50000000  0.00000000  1
  Ga  Ga1  1  0.56077900  0.50000000  0.19140600  1
  Ga  Ga2  1  0.25000000  0.25000000  0.00000000  1
  Ga  Ga3  1  0.75070000  0.50000000  0.74384100  1
  Ga  Ga4  1  0.24930000  0.50000000  0.25615900  1
  Ga  Ga5  1  0.43922100  0.50000000  0.80859400  1
  Ga  Ga6  1  0.25000000  0.25000000  0.50000000  1
  Ga  Ga7  1  0.25000000  0.75000000  0.00000000  1
  Ga  Ga8  1  0.55143600  0.00000000  0.69637600  1
  Ga  Ga9  1  0.25000000  0.75000000  0.50000000  1
  Ga  Ga10  1  0.44856400  0.00000000  0.30362400  1
  Ga  Ga11  1  0.50000000  0.50000000  0.50000000  1
  Ga  Ga12  1  0.50000000  0.00000000  0.00000000  1
  Ga  Ga13  1  0.06077900  0.00000000  0.19140600  1
  Ga  Ga14  1  0.75000000  0.75000000  0.00000000  1
  Ga  Ga15  1  0.25070000  0.00000000  0.74384100  1
  Ga  Ga16  1  0.74930000  0.00000000  0.25615900  1
  Ga  Ga17  1  0.93922100  0.00000000  0.80859400  1
  Ga  Ga18  1  0.75000000  0.75000000  0.50000000  1
  Ga  Ga19  1  0.75000000  0.25000000  0.00000000  1
  Ga  Ga20  1  0.05143600  0.50000000  0.69637600  1
  Ga  Ga21  1  0.75000000  0.25000000  0.50000000  1
  Ga  Ga22  1  0.94856400  0.50000000  0.30362400  1
  Ga  Ga23  1  0.00000000  0.00000000  0.50000000  1
  N  N24  1  0.36937500  0.00000000  0.10256200  1
  N  N25  1  0.35269700  0.00000000  0.61526400  1
  N  N26  1  0.63062500  0.00000000  0.89743800  1
  N  N27  1  0.64730300  0.00000000  0.38473600  1
  N  N28  1  0.86937500  0.50000000  0.10256200  1
  N  N29  1  0.85269700  0.50000000  0.61526400  1
  N  N30  1  0.13062500  0.50000000  0.89743800  1
  N  N31  1  0.14730300  0.50000000  0.38473600  1
  O  O32  1  0.12967900  0.25603100  0.12680900  1
  O  O33  1  0.12967900  0.74396900  0.12680900  1
  O  O34  1  0.87032100  0.74396900  0.87319100  1
  O  O35  1  0.36558200  0.50000000  0.12994700  1
  O  O36  1  0.62125100  0.73747100  0.62306900  1
  O  O37  1  0.87032100  0.25603100  0.87319100  1
  O  O38  1  0.37570800  0.50000000  0.61570300  1
  O  O39  1  0.63441800  0.50000000  0.87005300  1
  O  O40  1  0.62125100  0.26252900  0.62306900  1
  O  O41  1  0.62429200  0.50000000  0.38429700  1
  O  O42  1  0.37874900  0.26252900  0.37693100  1
  O  O43  1  0.37874900  0.73747100  0.37693100  1
  O  O44  1  0.62967900  0.75603100  0.12680900  1
  O  O45  1  0.62967900  0.24396900  0.12680900  1
  O  O46  1  0.37032100  0.24396900  0.87319100  1
  O  O47  1  0.86558200  0.00000000  0.12994700  1
  O  O48  1  0.12125100  0.23747100  0.62306900  1
  O  O49  1  0.37032100  0.75603100  0.87319100  1
  O  O50  1  0.87570800  0.00000000  0.61570300  1
  O  O51  1  0.13441800  0.00000000  0.87005300  1
  O  O52  1  0.12125100  0.76252900  0.62306900  1
  O  O53  1  0.12429200  0.00000000  0.38429700  1
  O  O54  1  0.87874900  0.76252900  0.37693100  1
  O  O55  1  0.87874900  0.23747100  0.37693100  1
