# generated using pymatgen
data_Li2Mn3Si3O10
_symmetry_space_group_name_H-M   'P 1'
_cell_length_a   16.10867400
_cell_length_b   4.91368400
_cell_length_c   10.61308863
_cell_angle_alpha   90.00000000
_cell_angle_beta   93.26930109
_cell_angle_gamma   90.00000000
_symmetry_Int_Tables_number   1
_chemical_formula_structural   Li2Mn3Si3O10
_chemical_formula_sum   'Li8 Mn12 Si12 O40'
_cell_volume   838.68992129
_cell_formula_units_Z   4
loop_
 _symmetry_equiv_pos_site_id
 _symmetry_equiv_pos_as_xyz
  1  'x, y, z'
loop_
 _atom_site_type_symbol
 _atom_site_label
 _atom_site_symmetry_multiplicity
 _atom_site_fract_x
 _atom_site_fract_y
 _atom_site_fract_z
 _atom_site_occupancy
  Li  Li0  1  0.55764750  0.30715550  0.97513400  1
  Li  Li1  1  0.55764750  0.69284450  0.47513400  1
  Li  Li2  1  0.94235250  0.80715550  0.52486600  1
  Li  Li3  1  0.94235250  0.19284450  0.02486600  1
  Li  Li4  1  0.05764750  0.80715550  0.97513400  1
  Li  Li5  1  0.05764750  0.19284450  0.47513400  1
  Li  Li6  1  0.44235250  0.30715550  0.52486600  1
  Li  Li7  1  0.44235250  0.69284450  0.02486600  1
  Mn  Mn8  1  0.65198400  0.27745100  0.70734900  1
  Mn  Mn9  1  0.65198400  0.72254900  0.20734900  1
  Mn  Mn10  1  0.75000000  0.25000000  0.00000000  1
  Mn  Mn11  1  0.75000000  0.75000000  0.50000000  1
  Mn  Mn12  1  0.84801600  0.77745100  0.79265100  1
  Mn  Mn13  1  0.84801600  0.22254900  0.29265100  1
  Mn  Mn14  1  0.15198400  0.77745100  0.70734900  1
  Mn  Mn15  1  0.15198400  0.22254900  0.20734900  1
  Mn  Mn16  1  0.25000000  0.75000000  0.00000000  1
  Mn  Mn17  1  0.25000000  0.25000000  0.50000000  1
  Mn  Mn18  1  0.34801600  0.27745100  0.79265100  1
  Mn  Mn19  1  0.34801600  0.72254900  0.29265100  1
  Si  Si20  1  0.65322550  0.81769850  0.90095200  1
  Si  Si21  1  0.65322550  0.18230150  0.40095200  1
  Si  Si22  1  0.84677450  0.31769850  0.59904800  1
  Si  Si23  1  0.84677450  0.68230150  0.09904800  1
  Si  Si24  1  0.00000000  0.20109700  0.75000000  1
  Si  Si25  1  0.00000000  0.79890300  0.25000000  1
  Si  Si26  1  0.15322550  0.31769850  0.90095200  1
  Si  Si27  1  0.15322550  0.68230150  0.40095200  1
  Si  Si28  1  0.34677450  0.81769850  0.59904800  1
  Si  Si29  1  0.34677450  0.18230150  0.09904800  1
  Si  Si30  1  0.50000000  0.70109700  0.75000000  1
  Si  Si31  1  0.50000000  0.29890300  0.25000000  1
  O  O32  1  0.54149900  0.52119400  0.64070500  1
  O  O33  1  0.56831250  0.92510750  0.81615600  1
  O  O34  1  0.54149900  0.47880600  0.14070500  1
  O  O35  1  0.56831250  0.07489250  0.31615600  1
  O  O36  1  0.65299600  0.48596400  0.89724300  1
  O  O37  1  0.64706100  0.04079300  0.53976000  1
  O  O38  1  0.65299600  0.51403600  0.39724300  1
  O  O39  1  0.64706100  0.95920700  0.03976000  1
  O  O40  1  0.73081000  0.96990000  0.83465100  1
  O  O41  1  0.73081000  0.03010000  0.33465100  1
  O  O42  1  0.76919000  0.46990000  0.66534900  1
  O  O43  1  0.76919000  0.53010000  0.16534900  1
  O  O44  1  0.85293900  0.54079300  0.96024000  1
  O  O45  1  0.84700400  0.98596400  0.60275700  1
  O  O46  1  0.85293900  0.45920700  0.46024000  1
  O  O47  1  0.84700400  0.01403600  0.10275700  1
  O  O48  1  0.93168750  0.42510750  0.68384400  1
  O  O49  1  0.95850100  0.02119400  0.85929500  1
  O  O50  1  0.93168750  0.57489250  0.18384400  1
  O  O51  1  0.95850100  0.97880600  0.35929500  1
  O  O52  1  0.04149900  0.02119400  0.64070500  1
  O  O53  1  0.06831250  0.42510750  0.81615600  1
  O  O54  1  0.04149900  0.97880600  0.14070500  1
  O  O55  1  0.06831250  0.57489250  0.31615600  1
  O  O56  1  0.15299600  0.98596400  0.89724300  1
  O  O57  1  0.14706100  0.54079300  0.53976000  1
  O  O58  1  0.15299600  0.01403600  0.39724300  1
  O  O59  1  0.14706100  0.45920700  0.03976000  1
  O  O60  1  0.23081000  0.46990000  0.83465100  1
  O  O61  1  0.23081000  0.53010000  0.33465100  1
  O  O62  1  0.26919000  0.96990000  0.66534900  1
  O  O63  1  0.26919000  0.03010000  0.16534900  1
  O  O64  1  0.35293900  0.04079300  0.96024000  1
  O  O65  1  0.34700400  0.48596400  0.60275700  1
  O  O66  1  0.35293900  0.95920700  0.46024000  1
  O  O67  1  0.34700400  0.51403600  0.10275700  1
  O  O68  1  0.43168750  0.92510750  0.68384400  1
  O  O69  1  0.45850100  0.52119400  0.85929500  1
  O  O70  1  0.43168750  0.07489250  0.18384400  1
  O  O71  1  0.45850100  0.47880600  0.35929500  1
