# generated using pymatgen
data_Li2Mn3VO8
_symmetry_space_group_name_H-M   'P 1'
_cell_length_a   6.01965800
_cell_length_b   10.00575600
_cell_length_c   9.61435400
_cell_angle_alpha   90.00000000
_cell_angle_beta   90.00000000
_cell_angle_gamma   90.00000000
_symmetry_Int_Tables_number   1
_chemical_formula_structural   Li2Mn3VO8
_chemical_formula_sum   'Li8 Mn12 V4 O32'
_cell_volume   579.08435892
_cell_formula_units_Z   4
loop_
 _symmetry_equiv_pos_site_id
 _symmetry_equiv_pos_as_xyz
  1  'x, y, z'
loop_
 _atom_site_type_symbol
 _atom_site_label
 _atom_site_symmetry_multiplicity
 _atom_site_fract_x
 _atom_site_fract_y
 _atom_site_fract_z
 _atom_site_occupancy
  Li  Li0  1  0.50000000  0.67004600  0.89599400  1
  Li  Li1  1  0.50000000  0.00538500  0.99378600  1
  Li  Li2  1  0.50000000  0.99461500  0.49378600  1
  Li  Li3  1  0.50000000  0.32995400  0.39599400  1
  Li  Li4  1  0.00000000  0.17004600  0.89599400  1
  Li  Li5  1  0.00000000  0.50538500  0.99378600  1
  Li  Li6  1  0.00000000  0.49461500  0.49378600  1
  Li  Li7  1  0.00000000  0.82995400  0.39599400  1
  Mn  Mn8  1  0.75584800  0.08310600  0.21353000  1
  Mn  Mn9  1  0.24415200  0.08310600  0.21353000  1
  Mn  Mn10  1  0.50000000  0.83088900  0.21451600  1
  Mn  Mn11  1  0.50000000  0.16911100  0.71451600  1
  Mn  Mn12  1  0.75584800  0.91689400  0.71353000  1
  Mn  Mn13  1  0.24415200  0.91689400  0.71353000  1
  Mn  Mn14  1  0.25584800  0.58310600  0.21353000  1
  Mn  Mn15  1  0.74415200  0.58310600  0.21353000  1
  Mn  Mn16  1  0.00000000  0.33088900  0.21451600  1
  Mn  Mn17  1  0.00000000  0.66911100  0.71451600  1
  Mn  Mn18  1  0.25584800  0.41689400  0.71353000  1
  Mn  Mn19  1  0.74415200  0.41689400  0.71353000  1
  V  V20  1  0.50000000  0.66335100  0.48777400  1
  V  V21  1  0.50000000  0.33664900  0.98777400  1
  V  V22  1  0.00000000  0.16335100  0.48777400  1
  V  V23  1  0.00000000  0.83664900  0.98777400  1
  O  O24  1  0.73762750  0.08089050  0.60011900  1
  O  O25  1  0.50000000  0.51896900  0.36509300  1
  O  O26  1  0.50000000  0.66669700  0.11029200  1
  O  O27  1  0.50000000  0.00288500  0.30667600  1
  O  O28  1  0.50000000  0.99711500  0.80667600  1
  O  O29  1  0.26237250  0.08089050  0.60011900  1
  O  O30  1  0.28350450  0.74283450  0.33435900  1
  O  O31  1  0.71649550  0.74283450  0.33435900  1
  O  O32  1  0.50000000  0.17987200  0.08199900  1
  O  O33  1  0.50000000  0.82012800  0.58199900  1
  O  O34  1  0.28350450  0.25716550  0.83435900  1
  O  O35  1  0.71649550  0.25716550  0.83435900  1
  O  O36  1  0.50000000  0.33330300  0.61029200  1
  O  O37  1  0.73762750  0.91910950  0.10011900  1
  O  O38  1  0.50000000  0.48103100  0.86509300  1
  O  O39  1  0.26237250  0.91910950  0.10011900  1
  O  O40  1  0.23762750  0.58089050  0.60011900  1
  O  O41  1  0.00000000  0.01896900  0.36509300  1
  O  O42  1  0.00000000  0.16669700  0.11029200  1
  O  O43  1  0.00000000  0.50288500  0.30667600  1
  O  O44  1  0.00000000  0.49711500  0.80667600  1
  O  O45  1  0.76237250  0.58089050  0.60011900  1
  O  O46  1  0.78350450  0.24283450  0.33435900  1
  O  O47  1  0.21649550  0.24283450  0.33435900  1
  O  O48  1  0.00000000  0.67987200  0.08199900  1
  O  O49  1  0.00000000  0.32012800  0.58199900  1
  O  O50  1  0.78350450  0.75716550  0.83435900  1
  O  O51  1  0.21649550  0.75716550  0.83435900  1
  O  O52  1  0.00000000  0.83330300  0.61029200  1
  O  O53  1  0.23762750  0.41910950  0.10011900  1
  O  O54  1  0.00000000  0.98103100  0.86509300  1
  O  O55  1  0.76237250  0.41910950  0.10011900  1
