# generated using pymatgen
data_Li4Fe5(CoO6)2
_symmetry_space_group_name_H-M   'P 1'
_cell_length_a   5.22826700
_cell_length_b   8.91639100
_cell_length_c   9.81084936
_cell_angle_alpha   90.00000000
_cell_angle_beta   99.27531320
_cell_angle_gamma   90.00000000
_symmetry_Int_Tables_number   1
_chemical_formula_structural   Li4Fe5(CoO6)2
_chemical_formula_sum   'Li8 Fe10 Co4 O24'
_cell_volume   451.37524042
_cell_formula_units_Z   2
loop_
 _symmetry_equiv_pos_site_id
 _symmetry_equiv_pos_as_xyz
  1  'x, y, z'
loop_
 _atom_site_type_symbol
 _atom_site_label
 _atom_site_symmetry_multiplicity
 _atom_site_fract_x
 _atom_site_fract_y
 _atom_site_fract_z
 _atom_site_occupancy
  Li  Li0  1  0.01664000  0.09652900  0.25306800  1
  Li  Li1  1  0.48695000  0.08291200  0.74237800  1
  Li  Li2  1  0.76103100  0.41611800  0.49687600  1
  Li  Li3  1  0.49810200  0.41001800  0.74383600  1
  Li  Li4  1  0.98336000  0.59652900  0.74693200  1
  Li  Li5  1  0.51305000  0.58291200  0.25762200  1
  Li  Li6  1  0.23896900  0.91611800  0.50312400  1
  Li  Li7  1  0.50189800  0.91001800  0.25616400  1
  Fe  Fe8  1  0.25575700  0.08117400  0.99737700  1
  Fe  Fe9  1  0.75064200  0.07833300  0.50266200  1
  Fe  Fe10  1  0.99691400  0.24849500  0.74318400  1
  Fe  Fe11  1  0.24064500  0.42100100  0.00298500  1
  Fe  Fe12  1  0.51019400  0.25562900  0.25939700  1
  Fe  Fe13  1  0.24935800  0.57833300  0.49733800  1
  Fe  Fe14  1  0.74424300  0.58117400  0.00262300  1
  Fe  Fe15  1  0.00308600  0.74849500  0.25681600  1
  Fe  Fe16  1  0.48980600  0.75562900  0.74060300  1
  Fe  Fe17  1  0.75935500  0.92100100  0.99701500  1
  Co  Co18  1  0.24535500  0.25210300  0.49446300  1
  Co  Co19  1  0.75648000  0.25371100  0.00683400  1
  Co  Co20  1  0.24352000  0.75371100  0.99316600  1
  Co  Co21  1  0.75464500  0.75210300  0.50553700  1
  O  O22  1  0.12571700  0.10444800  0.61030600  1
  O  O23  1  0.89332300  0.09055600  0.88702600  1
  O  O24  1  0.15383500  0.24655200  0.11979200  1
  O  O25  1  0.85213200  0.23230200  0.37340200  1
  O  O26  1  0.38188800  0.09915200  0.38210800  1
  O  O27  1  0.61152700  0.08316900  0.11950200  1
  O  O28  1  0.65131800  0.23634000  0.63444600  1
  O  O29  1  0.13617700  0.40315700  0.61431600  1
  O  O30  1  0.88710300  0.41859600  0.87884100  1
  O  O31  1  0.35247000  0.25237600  0.87636100  1
  O  O32  1  0.38530300  0.40300500  0.39121900  1
  O  O33  1  0.87428300  0.60444800  0.38969400  1
  O  O34  1  0.10667700  0.59055600  0.11297400  1
  O  O35  1  0.59649300  0.41952400  0.11868100  1
  O  O36  1  0.14786800  0.73230200  0.62659800  1
  O  O37  1  0.61811200  0.59915200  0.61789200  1
  O  O38  1  0.38847300  0.58316900  0.88049800  1
  O  O39  1  0.84616500  0.74655200  0.88020800  1
  O  O40  1  0.64753000  0.75237600  0.12363900  1
  O  O41  1  0.34868200  0.73634000  0.36555400  1
  O  O42  1  0.86382300  0.90315700  0.38568400  1
  O  O43  1  0.11289700  0.91859600  0.12115900  1
  O  O44  1  0.61469700  0.90300500  0.60878100  1
  O  O45  1  0.40350700  0.91952400  0.88131900  1
