# generated using pymatgen
data_Ba6YI15
_symmetry_space_group_name_H-M   'P 1'
_cell_length_a   16.70938200
_cell_length_b   17.27337800
_cell_length_c   34.38486203
_cell_angle_alpha   90.00000000
_cell_angle_beta   90.04589513
_cell_angle_gamma   90.00000000
_symmetry_Int_Tables_number   1
_chemical_formula_structural   Ba6YI15
_chemical_formula_sum   'Ba48 Y8 I120'
_cell_volume   9924.41259971
_cell_formula_units_Z   8
loop_
 _symmetry_equiv_pos_site_id
 _symmetry_equiv_pos_as_xyz
  1  'x, y, z'
loop_
 _atom_site_type_symbol
 _atom_site_label
 _atom_site_symmetry_multiplicity
 _atom_site_fract_x
 _atom_site_fract_y
 _atom_site_fract_z
 _atom_site_occupancy
  Ba  Ba0  1  0.01590200  0.01070700  0.88387400  1
  Ba  Ba1  1  0.01590200  0.98929300  0.38387400  1
  Ba  Ba2  1  0.69935650  0.75472550  0.86487500  1
  Ba  Ba3  1  0.21531150  0.03345850  0.75746300  1
  Ba  Ba4  1  0.69935650  0.24527450  0.36487500  1
  Ba  Ba5  1  0.21531150  0.96654150  0.25746300  1
  Ba  Ba6  1  0.25802200  0.82180000  0.87083400  1
  Ba  Ba7  1  0.27273600  0.04851000  0.97659000  1
  Ba  Ba8  1  0.25802200  0.17820000  0.37083400  1
  Ba  Ba9  1  0.27273600  0.95149000  0.47659000  1
  Ba  Ba10  1  0.46797900  0.07422200  0.85728400  1
  Ba  Ba11  1  0.46797900  0.92577800  0.35728400  1
  Ba  Ba12  1  0.53202100  0.07422200  0.64271600  1
  Ba  Ba13  1  0.53202100  0.92577800  0.14271600  1
  Ba  Ba14  1  0.72726400  0.04851000  0.52341000  1
  Ba  Ba15  1  0.74197800  0.82180000  0.62916600  1
  Ba  Ba16  1  0.72726400  0.95149000  0.02341000  1
  Ba  Ba17  1  0.74197800  0.17820000  0.12916600  1
  Ba  Ba18  1  0.78468850  0.03345850  0.74253700  1
  Ba  Ba19  1  0.30064350  0.75472550  0.63512500  1
  Ba  Ba20  1  0.78468850  0.96654150  0.24253700  1
  Ba  Ba21  1  0.30064350  0.24527450  0.13512500  1
  Ba  Ba22  1  0.98409800  0.01070700  0.61612600  1
  Ba  Ba23  1  0.98409800  0.98929300  0.11612600  1
  Ba  Ba24  1  0.51590200  0.51070700  0.88387400  1
  Ba  Ba25  1  0.51590200  0.48929300  0.38387400  1
  Ba  Ba26  1  0.19935650  0.25472550  0.86487500  1
  Ba  Ba27  1  0.71531150  0.53345850  0.75746300  1
  Ba  Ba28  1  0.19935650  0.74527450  0.36487500  1
  Ba  Ba29  1  0.71531150  0.46654150  0.25746300  1
  Ba  Ba30  1  0.75802200  0.32180000  0.87083400  1
  Ba  Ba31  1  0.77273600  0.54851000  0.97659000  1
  Ba  Ba32  1  0.75802200  0.67820000  0.37083400  1
  Ba  Ba33  1  0.77273600  0.45149000  0.47659000  1
  Ba  Ba34  1  0.96797900  0.57422200  0.85728400  1
  Ba  Ba35  1  0.96797900  0.42577800  0.35728400  1
  Ba  Ba36  1  0.03202100  0.57422200  0.64271600  1
  Ba  Ba37  1  0.03202100  0.42577800  0.14271600  1
  Ba  Ba38  1  0.22726400  0.54851000  0.52341000  1
  Ba  Ba39  1  0.24197800  0.32180000  0.62916600  1
  Ba  Ba40  1  0.22726400  0.45149000  0.02341000  1
  Ba  Ba41  1  0.24197800  0.67820000  0.12916600  1
  Ba  Ba42  1  0.28468850  0.53345850  0.74253700  1
  Ba  Ba43  1  0.80064350  0.25472550  0.63512500  1
  Ba  Ba44  1  0.28468850  0.46654150  0.24253700  1
  Ba  Ba45  1  0.80064350  0.74527450  0.13512500  1
  Ba  Ba46  1  0.48409800  0.51070700  0.61612600  1
  Ba  Ba47  1  0.48409800  0.48929300  0.11612600  1
  Y  Y48  1  0.27265150  0.02029350  0.61311000  1
  Y  Y49  1  0.27265150  0.97970650  0.11311000  1
  Y  Y50  1  0.72734850  0.02029350  0.88689000  1
  Y  Y51  1  0.72734850  0.97970650  0.38689000  1
  Y  Y52  1  0.77265150  0.52029350  0.61311000  1
  Y  Y53  1  0.77265150  0.47970650  0.11311000  1
  Y  Y54  1  0.22734850  0.52029350  0.88689000  1
  Y  Y55  1  0.22734850  0.47970650  0.38689000  1
  I  I56  1  0.13967950  0.96184550  0.55424800  1
  I  I57  1  0.13967950  0.03815450  0.05424800  1
  I  I58  1  0.15288350  0.93696650  0.67156800  1
  I  I59  1  0.14300100  0.89983600  0.94344500  1
  I  I60  1  0.15288350  0.06303350  0.17156800  1
  I  I61  1  0.14300100  0.10016400  0.44344500  1
  I  I62  1  0.35497550  0.88565550  0.56351500  1
  I  I63  1  0.33353400  0.17872600  0.79752900  1
  I  I64  1  0.35497550  0.11434450  0.06351500  1
  I  I65  1  0.36070100  0.65271600  0.88731800  1
  I  I66  1  0.33353400  0.82127400  0.29752900  1
  I  I67  1  0.38881400  0.93044800  0.67172600  1
  I  I68  1  0.36070100  0.34728400  0.38731800  1
  I  I69  1  0.36425150  0.19456250  0.92120300  1
  I  I70  1  0.36325100  0.92875200  0.80118800  1
  I  I71  1  0.37883850  0.11477350  0.56165500  1
  I  I72  1  0.38954750  0.64924050  0.56108900  1
  I  I73  1  0.89319050  0.89575850  0.68738400  1
  I  I74  1  0.38881400  0.06955200  0.17172600  1
  I  I75  1  0.36425150  0.80543750  0.42120300  1
  I  I76  1  0.36325100  0.07124800  0.30118800  1
  I  I77  1  0.37883850  0.88522650  0.06165500  1
  I  I78  1  0.38954750  0.35075950  0.06108900  1
  I  I79  1  0.89319050  0.10424150  0.18738400  1
  I  I80  1  0.33355000  0.14581100  0.67672700  1
  I  I81  1  0.39891500  0.93524000  0.92243000  1
  I  I82  1  0.42874100  0.64077800  0.69178900  1
  I  I83  1  0.33355000  0.85418900  0.17672700  1
  I  I84  1  0.39891500  0.06476000  0.42243000  1
  I  I85  1  0.42874100  0.35922200  0.19178900  1
  I  I86  1  0.57125900  0.64077800  0.80821100  1
  I  I87  1  0.60108500  0.93524000  0.57757000  1
  I  I88  1  0.66645000  0.14581100  0.82327300  1
  I  I89  1  0.57125900  0.35922200  0.30821100  1
  I  I90  1  0.60108500  0.06476000  0.07757000  1
  I  I91  1  0.66645000  0.85418900  0.32327300  1
  I  I92  1  0.10680950  0.89575850  0.81261600  1
  I  I93  1  0.61045250  0.64924050  0.93891100  1
  I  I94  1  0.62116150  0.11477350  0.93834500  1
  I  I95  1  0.63674900  0.92875200  0.69881200  1
  I  I96  1  0.63574850  0.19456250  0.57879700  1
  I  I97  1  0.61118600  0.93044800  0.82827400  1
  I  I98  1  0.10680950  0.10424150  0.31261600  1
  I  I99  1  0.61045250  0.35075950  0.43891100  1
  I  I100  1  0.62116150  0.88522650  0.43834500  1
  I  I101  1  0.63674900  0.07124800  0.19881200  1
  I  I102  1  0.63574850  0.80543750  0.07879700  1
  I  I103  1  0.63929900  0.65271600  0.61268200  1
  I  I104  1  0.61118600  0.06955200  0.32827400  1
  I  I105  1  0.66646600  0.17872600  0.70247100  1
  I  I106  1  0.63929900  0.34728400  0.11268200  1
  I  I107  1  0.64502450  0.88565550  0.93648500  1
  I  I108  1  0.66646600  0.82127400  0.20247100  1
  I  I109  1  0.64502450  0.11434450  0.43648500  1
  I  I110  1  0.85699900  0.89983600  0.55655500  1
  I  I111  1  0.84711650  0.93696650  0.82843200  1
  I  I112  1  0.85699900  0.10016400  0.05655500  1
  I  I113  1  0.84711650  0.06303350  0.32843200  1
  I  I114  1  0.86032050  0.96184550  0.94575200  1
  I  I115  1  0.86032050  0.03815450  0.44575200  1
  I  I116  1  0.63967950  0.46184550  0.55424800  1
  I  I117  1  0.63967950  0.53815450  0.05424800  1
  I  I118  1  0.65288350  0.43696650  0.67156800  1
  I  I119  1  0.64300100  0.39983600  0.94344500  1
  I  I120  1  0.65288350  0.56303350  0.17156800  1
  I  I121  1  0.64300100  0.60016400  0.44344500  1
  I  I122  1  0.85497550  0.38565550  0.56351500  1
  I  I123  1  0.83353400  0.67872600  0.79752900  1
  I  I124  1  0.85497550  0.61434450  0.06351500  1
  I  I125  1  0.86070100  0.15271600  0.88731800  1
  I  I126  1  0.83353400  0.32127400  0.29752900  1
  I  I127  1  0.88881400  0.43044800  0.67172600  1
  I  I128  1  0.86070100  0.84728400  0.38731800  1
  I  I129  1  0.86425150  0.69456250  0.92120300  1
  I  I130  1  0.86325100  0.42875200  0.80118800  1
  I  I131  1  0.87883850  0.61477350  0.56165500  1
  I  I132  1  0.88954750  0.14924050  0.56108900  1
  I  I133  1  0.39319050  0.39575850  0.68738400  1
  I  I134  1  0.88881400  0.56955200  0.17172600  1
  I  I135  1  0.86425150  0.30543750  0.42120300  1
  I  I136  1  0.86325100  0.57124800  0.30118800  1
  I  I137  1  0.87883850  0.38522650  0.06165500  1
  I  I138  1  0.88954750  0.85075950  0.06108900  1
  I  I139  1  0.39319050  0.60424150  0.18738400  1
  I  I140  1  0.83355000  0.64581100  0.67672700  1
  I  I141  1  0.89891500  0.43524000  0.92243000  1
  I  I142  1  0.92874100  0.14077800  0.69178900  1
  I  I143  1  0.83355000  0.35418900  0.17672700  1
  I  I144  1  0.89891500  0.56476000  0.42243000  1
  I  I145  1  0.92874100  0.85922200  0.19178900  1
  I  I146  1  0.07125900  0.14077800  0.80821100  1
  I  I147  1  0.10108500  0.43524000  0.57757000  1
  I  I148  1  0.16645000  0.64581100  0.82327300  1
  I  I149  1  0.07125900  0.85922200  0.30821100  1
  I  I150  1  0.10108500  0.56476000  0.07757000  1
  I  I151  1  0.16645000  0.35418900  0.32327300  1
  I  I152  1  0.60680950  0.39575850  0.81261600  1
  I  I153  1  0.11045250  0.14924050  0.93891100  1
  I  I154  1  0.12116150  0.61477350  0.93834500  1
  I  I155  1  0.13674900  0.42875200  0.69881200  1
  I  I156  1  0.13574850  0.69456250  0.57879700  1
  I  I157  1  0.11118600  0.43044800  0.82827400  1
  I  I158  1  0.60680950  0.60424150  0.31261600  1
  I  I159  1  0.11045250  0.85075950  0.43891100  1
  I  I160  1  0.12116150  0.38522650  0.43834500  1
  I  I161  1  0.13674900  0.57124800  0.19881200  1
  I  I162  1  0.13574850  0.30543750  0.07879700  1
  I  I163  1  0.13929900  0.15271600  0.61268200  1
  I  I164  1  0.11118600  0.56955200  0.32827400  1
  I  I165  1  0.16646600  0.67872600  0.70247100  1
  I  I166  1  0.13929900  0.84728400  0.11268200  1
  I  I167  1  0.14502450  0.38565550  0.93648500  1
  I  I168  1  0.16646600  0.32127400  0.20247100  1
  I  I169  1  0.14502450  0.61434450  0.43648500  1
  I  I170  1  0.35699900  0.39983600  0.55655500  1
  I  I171  1  0.34711650  0.43696650  0.82843200  1
  I  I172  1  0.35699900  0.60016400  0.05655500  1
  I  I173  1  0.34711650  0.56303350  0.32843200  1
  I  I174  1  0.36032050  0.46184550  0.94575200  1
  I  I175  1  0.36032050  0.53815450  0.44575200  1
