# generated using pymatgen
data_NaSmO2
_symmetry_space_group_name_H-M   'P 1'
_cell_length_a   4.71907200
_cell_length_b   4.71907200
_cell_length_c   10.79197400
_cell_angle_alpha   90.00000000
_cell_angle_beta   90.00000000
_cell_angle_gamma   90.00000000
_symmetry_Int_Tables_number   1
_chemical_formula_structural   NaSmO2
_chemical_formula_sum   'Na4 Sm4 O8'
_cell_volume   240.33338171
_cell_formula_units_Z   4
loop_
 _symmetry_equiv_pos_site_id
 _symmetry_equiv_pos_as_xyz
  1  'x, y, z'
loop_
 _atom_site_type_symbol
 _atom_site_label
 _atom_site_symmetry_multiplicity
 _atom_site_fract_x
 _atom_site_fract_y
 _atom_site_fract_z
 _atom_site_occupancy
  Na  Na0  1  0.50000000  0.50000000  0.00000000  1
  Na  Na1  1  0.50000000  0.00000000  0.25000000  1
  Na  Na2  1  0.00000000  0.00000000  0.50000000  1
  Na  Na3  1  0.00000000  0.50000000  0.75000000  1
  Sm  Sm4  1  0.00000000  0.00000000  0.00000000  1
  Sm  Sm5  1  0.00000000  0.50000000  0.25000000  1
  Sm  Sm6  1  0.50000000  0.50000000  0.50000000  1
  Sm  Sm7  1  0.50000000  0.00000000  0.75000000  1
  O  O8  1  0.00000000  0.00000000  0.21988900  1
  O  O9  1  0.00000000  0.50000000  0.03011100  1
  O  O10  1  0.00000000  0.50000000  0.46988900  1
  O  O11  1  0.50000000  0.50000000  0.28011100  1
  O  O12  1  0.50000000  0.50000000  0.71988900  1
  O  O13  1  0.50000000  0.00000000  0.53011100  1
  O  O14  1  0.50000000  0.00000000  0.96988900  1
  O  O15  1  0.00000000  0.00000000  0.78011100  1
