# generated using pymatgen
data_K4TiO4
_symmetry_space_group_name_H-M   'P 1'
_cell_length_a   9.59197200
_cell_length_b   9.91955600
_cell_length_c   7.46070500
_cell_angle_alpha   90.00000000
_cell_angle_beta   90.00000000
_cell_angle_gamma   90.00000000
_symmetry_Int_Tables_number   1
_chemical_formula_structural   K4TiO4
_chemical_formula_sum   'K16 Ti4 O16'
_cell_volume   709.87193081
_cell_formula_units_Z   4
loop_
 _symmetry_equiv_pos_site_id
 _symmetry_equiv_pos_as_xyz
  1  'x, y, z'
loop_
 _atom_site_type_symbol
 _atom_site_label
 _atom_site_symmetry_multiplicity
 _atom_site_fract_x
 _atom_site_fract_y
 _atom_site_fract_z
 _atom_site_occupancy
  K  K0  1  0.16774300  0.00000000  0.50000000  1
  K  K1  1  0.16774300  0.00000000  0.00000000  1
  K  K2  1  0.34084450  0.20460950  0.25000000  1
  K  K3  1  0.34084450  0.79539050  0.75000000  1
  K  K4  1  0.65915550  0.79539050  0.75000000  1
  K  K5  1  0.65915550  0.20460950  0.25000000  1
  K  K6  1  0.83225700  0.00000000  0.00000000  1
  K  K7  1  0.83225700  0.00000000  0.50000000  1
  K  K8  1  0.66774300  0.50000000  0.50000000  1
  K  K9  1  0.66774300  0.50000000  0.00000000  1
  K  K10  1  0.84084450  0.70460950  0.25000000  1
  K  K11  1  0.84084450  0.29539050  0.75000000  1
  K  K12  1  0.15915550  0.29539050  0.75000000  1
  K  K13  1  0.15915550  0.70460950  0.25000000  1
  K  K14  1  0.33225700  0.50000000  0.00000000  1
  K  K15  1  0.33225700  0.50000000  0.50000000  1
  Ti  Ti16  1  0.50000000  0.82625400  0.25000000  1
  Ti  Ti17  1  0.50000000  0.17374600  0.75000000  1
  Ti  Ti18  1  0.00000000  0.32625400  0.25000000  1
  Ti  Ti19  1  0.00000000  0.67374600  0.75000000  1
  O  O20  1  0.33770100  0.92831400  0.25000000  1
  O  O21  1  0.33770100  0.07168600  0.75000000  1
  O  O22  1  0.50000000  0.71583100  0.04649200  1
  O  O23  1  0.50000000  0.71583100  0.45350800  1
  O  O24  1  0.50000000  0.28416900  0.95350800  1
  O  O25  1  0.50000000  0.28416900  0.54649200  1
  O  O26  1  0.66229900  0.07168600  0.75000000  1
  O  O27  1  0.66229900  0.92831400  0.25000000  1
  O  O28  1  0.83770100  0.42831400  0.25000000  1
  O  O29  1  0.83770100  0.57168600  0.75000000  1
  O  O30  1  0.00000000  0.21583100  0.04649200  1
  O  O31  1  0.00000000  0.21583100  0.45350800  1
  O  O32  1  0.00000000  0.78416900  0.95350800  1
  O  O33  1  0.00000000  0.78416900  0.54649200  1
  O  O34  1  0.16229900  0.57168600  0.75000000  1
  O  O35  1  0.16229900  0.42831400  0.25000000  1
