# generated using pymatgen
data_LiTi(PO3)4
_symmetry_space_group_name_H-M   'P 1'
_cell_length_a   8.17317800
_cell_length_b   11.51025000
_cell_length_c   9.81896021
_cell_angle_alpha   90.00000000
_cell_angle_beta   93.30502143
_cell_angle_gamma   90.00000000
_symmetry_Int_Tables_number   1
_chemical_formula_structural   LiTi(PO3)4
_chemical_formula_sum   'Li4 Ti4 P16 O48'
_cell_volume   922.18548035
_cell_formula_units_Z   4
loop_
 _symmetry_equiv_pos_site_id
 _symmetry_equiv_pos_as_xyz
  1  'x, y, z'
loop_
 _atom_site_type_symbol
 _atom_site_label
 _atom_site_symmetry_multiplicity
 _atom_site_fract_x
 _atom_site_fract_y
 _atom_site_fract_z
 _atom_site_occupancy
  Li  Li0  1  0.50000000  0.15642000  0.75000000  1
  Li  Li1  1  0.50000000  0.84358000  0.25000000  1
  Li  Li2  1  0.00000000  0.65642000  0.75000000  1
  Li  Li3  1  0.00000000  0.34358000  0.25000000  1
  Ti  Ti4  1  0.50000000  0.88666900  0.75000000  1
  Ti  Ti5  1  0.50000000  0.11333100  0.25000000  1
  Ti  Ti6  1  0.00000000  0.38666900  0.75000000  1
  Ti  Ti7  1  0.00000000  0.61333100  0.25000000  1
  P  P8  1  0.53784700  0.31472900  0.02421600  1
  P  P9  1  0.53784700  0.68527100  0.52421600  1
  P  P10  1  0.25518700  0.03292300  0.96107400  1
  P  P11  1  0.74481300  0.03292300  0.53892600  1
  P  P12  1  0.25518700  0.96707700  0.46107400  1
  P  P13  1  0.74481300  0.96707700  0.03892600  1
  P  P14  1  0.46215300  0.31472900  0.47578400  1
  P  P15  1  0.46215300  0.68527100  0.97578400  1
  P  P16  1  0.03784700  0.81472900  0.02421600  1
  P  P17  1  0.03784700  0.18527100  0.52421600  1
  P  P18  1  0.75518700  0.53292300  0.96107400  1
  P  P19  1  0.24481300  0.53292300  0.53892600  1
  P  P20  1  0.75518700  0.46707700  0.46107400  1
  P  P21  1  0.24481300  0.46707700  0.03892600  1
  P  P22  1  0.96215300  0.81472900  0.47578400  1
  P  P23  1  0.96215300  0.18527100  0.97578400  1
  O  O24  1  0.48022150  0.26193150  0.89291100  1
  O  O25  1  0.60935300  0.76159200  0.63804300  1
  O  O26  1  0.35554200  0.01571900  0.83868800  1
  O  O27  1  0.48022150  0.73806850  0.39291100  1
  O  O28  1  0.65801650  0.91625650  0.91300100  1
  O  O29  1  0.60935300  0.23840800  0.13804300  1
  O  O30  1  0.82918800  0.91552500  0.49536400  1
  O  O31  1  0.60754800  0.61402900  0.90752200  1
  O  O32  1  0.39245200  0.61402900  0.59247800  1
  O  O33  1  0.17081200  0.91552500  0.00463600  1
  O  O34  1  0.35554200  0.98428100  0.33868800  1
  O  O35  1  0.34198350  0.91625650  0.58699900  1
  O  O36  1  0.65801650  0.08374350  0.41300100  1
  O  O37  1  0.64445800  0.01571900  0.66131200  1
  O  O38  1  0.82918800  0.08447500  0.99536400  1
  O  O39  1  0.60754800  0.38597100  0.40752200  1
  O  O40  1  0.39245200  0.38597100  0.09247800  1
  O  O41  1  0.17081200  0.08447500  0.50463600  1
  O  O42  1  0.39064700  0.76159200  0.86195700  1
  O  O43  1  0.34198350  0.08374350  0.08699900  1
  O  O44  1  0.51977850  0.26193150  0.60708900  1
  O  O45  1  0.64445800  0.98428100  0.16131200  1
  O  O46  1  0.39064700  0.23840800  0.36195700  1
  O  O47  1  0.51977850  0.73806850  0.10708900  1
  O  O48  1  0.98022150  0.76193150  0.89291100  1
  O  O49  1  0.10935300  0.26159200  0.63804300  1
  O  O50  1  0.85554200  0.51571900  0.83868800  1
  O  O51  1  0.98022150  0.23806850  0.39291100  1
  O  O52  1  0.15801650  0.41625650  0.91300100  1
  O  O53  1  0.10935300  0.73840800  0.13804300  1
  O  O54  1  0.32918800  0.41552500  0.49536400  1
  O  O55  1  0.10754800  0.11402900  0.90752200  1
  O  O56  1  0.89245200  0.11402900  0.59247800  1
  O  O57  1  0.67081200  0.41552500  0.00463600  1
  O  O58  1  0.85554200  0.48428100  0.33868800  1
  O  O59  1  0.84198350  0.41625650  0.58699900  1
  O  O60  1  0.15801650  0.58374350  0.41300100  1
  O  O61  1  0.14445800  0.51571900  0.66131200  1
  O  O62  1  0.32918800  0.58447500  0.99536400  1
  O  O63  1  0.10754800  0.88597100  0.40752200  1
  O  O64  1  0.89245200  0.88597100  0.09247800  1
  O  O65  1  0.67081200  0.58447500  0.50463600  1
  O  O66  1  0.89064700  0.26159200  0.86195700  1
  O  O67  1  0.84198350  0.58374350  0.08699900  1
  O  O68  1  0.01977850  0.76193150  0.60708900  1
  O  O69  1  0.14445800  0.48428100  0.16131200  1
  O  O70  1  0.89064700  0.73840800  0.36195700  1
  O  O71  1  0.01977850  0.23806850  0.10708900  1
