# generated using pymatgen
data_LiSi2BiO6
_symmetry_space_group_name_H-M   'P 1'
_cell_length_a   10.21877600
_cell_length_b   9.89120400
_cell_length_c   5.52821005
_cell_angle_alpha   90.00000000
_cell_angle_beta   110.07016056
_cell_angle_gamma   90.00000000
_symmetry_Int_Tables_number   1
_chemical_formula_structural   LiSi2BiO6
_chemical_formula_sum   'Li4 Si8 Bi4 O24'
_cell_volume   524.83701878
_cell_formula_units_Z   4
loop_
 _symmetry_equiv_pos_site_id
 _symmetry_equiv_pos_as_xyz
  1  'x, y, z'
loop_
 _atom_site_type_symbol
 _atom_site_label
 _atom_site_symmetry_multiplicity
 _atom_site_fract_x
 _atom_site_fract_y
 _atom_site_fract_z
 _atom_site_occupancy
  Li  Li0  1  0.00000000  0.76099200  0.75000000  1
  Li  Li1  1  0.00000000  0.23900800  0.25000000  1
  Li  Li2  1  0.50000000  0.26099200  0.75000000  1
  Li  Li3  1  0.50000000  0.73900800  0.25000000  1
  Si  Si4  1  0.19649250  0.42004450  0.70677200  1
  Si  Si5  1  0.19649250  0.57995550  0.20677200  1
  Si  Si6  1  0.80350750  0.42004450  0.79322800  1
  Si  Si7  1  0.80350750  0.57995550  0.29322800  1
  Si  Si8  1  0.69649250  0.92004450  0.70677200  1
  Si  Si9  1  0.69649250  0.07995550  0.20677200  1
  Si  Si10  1  0.30350750  0.92004450  0.79322800  1
  Si  Si11  1  0.30350750  0.07995550  0.29322800  1
  Bi  Bi12  1  0.00000000  0.12449700  0.75000000  1
  Bi  Bi13  1  0.00000000  0.87550300  0.25000000  1
  Bi  Bi14  1  0.50000000  0.62449700  0.75000000  1
  Bi  Bi15  1  0.50000000  0.37550300  0.25000000  1
  O  O16  1  0.36726500  0.40509400  0.81104300  1
  O  O17  1  0.36726500  0.59490600  0.31104300  1
  O  O18  1  0.11296050  0.27943150  0.60677100  1
  O  O19  1  0.15313950  0.47815750  0.95193700  1
  O  O20  1  0.11296050  0.72056850  0.10677100  1
  O  O21  1  0.15313950  0.52184250  0.45193700  1
  O  O22  1  0.84686050  0.47815750  0.54806300  1
  O  O23  1  0.88703950  0.27943150  0.89322900  1
  O  O24  1  0.84686050  0.52184250  0.04806300  1
  O  O25  1  0.88703950  0.72056850  0.39322900  1
  O  O26  1  0.63273500  0.40509400  0.68895700  1
  O  O27  1  0.63273500  0.59490600  0.18895700  1
  O  O28  1  0.86726500  0.90509400  0.81104300  1
  O  O29  1  0.86726500  0.09490600  0.31104300  1
  O  O30  1  0.61296050  0.77943150  0.60677100  1
  O  O31  1  0.65313950  0.97815750  0.95193700  1
  O  O32  1  0.61296050  0.22056850  0.10677100  1
  O  O33  1  0.65313950  0.02184250  0.45193700  1
  O  O34  1  0.34686050  0.97815750  0.54806300  1
  O  O35  1  0.38703950  0.77943150  0.89322900  1
  O  O36  1  0.34686050  0.02184250  0.04806300  1
  O  O37  1  0.38703950  0.22056850  0.39322900  1
  O  O38  1  0.13273500  0.90509400  0.68895700  1
  O  O39  1  0.13273500  0.09490600  0.18895700  1
