# generated using pymatgen
data_Ba3GeO5
_symmetry_space_group_name_H-M   'P 1'
_cell_length_a   8.06502596
_cell_length_b   8.06502596
_cell_length_c   28.79394501
_cell_angle_alpha   90.00000000
_cell_angle_beta   90.00000000
_cell_angle_gamma   120.00000000
_symmetry_Int_Tables_number   1
_chemical_formula_structural   Ba3GeO5
_chemical_formula_sum   'Ba27 Ge9 O45'
_cell_volume   1621.97195870
_cell_formula_units_Z   9
loop_
 _symmetry_equiv_pos_site_id
 _symmetry_equiv_pos_as_xyz
  1  'x, y, z'
loop_
 _atom_site_type_symbol
 _atom_site_label
 _atom_site_symmetry_multiplicity
 _atom_site_fract_x
 _atom_site_fract_y
 _atom_site_fract_z
 _atom_site_occupancy
  Ba  Ba0  1  0.66908333  0.83454167  0.33143967  1
  Ba  Ba1  1  0.16545833  0.83454167  0.33143967  1
  Ba  Ba2  1  0.16545833  0.33091667  0.33143967  1
  Ba  Ba3  1  0.02035733  0.51017867  0.22064467  1
  Ba  Ba4  1  0.17681567  0.35363133  0.10900333  1
  Ba  Ba5  1  0.48982133  0.51017867  0.22064467  1
  Ba  Ba6  1  0.17681567  0.82318433  0.10900333  1
  Ba  Ba7  1  0.64636867  0.82318433  0.10900333  1
  Ba  Ba8  1  0.48982133  0.97964267  0.22064467  1
  Ba  Ba9  1  0.33575000  0.16787500  0.66477300  1
  Ba  Ba10  1  0.83212500  0.16787500  0.66477300  1
  Ba  Ba11  1  0.83212500  0.66425000  0.66477300  1
  Ba  Ba12  1  0.68702400  0.84351200  0.55397800  1
  Ba  Ba13  1  0.84348233  0.68696467  0.44233667  1
  Ba  Ba14  1  0.15648800  0.84351200  0.55397800  1
  Ba  Ba15  1  0.84348233  0.15651767  0.44233667  1
  Ba  Ba16  1  0.31303533  0.15651767  0.44233667  1
  Ba  Ba17  1  0.15648800  0.31297600  0.55397800  1
  Ba  Ba18  1  0.00241667  0.50120833  0.99810633  1
  Ba  Ba19  1  0.49879167  0.50120833  0.99810633  1
  Ba  Ba20  1  0.49879167  0.99758333  0.99810633  1
  Ba  Ba21  1  0.35369067  0.17684533  0.88731133  1
  Ba  Ba22  1  0.51014900  0.02029800  0.77567000  1
  Ba  Ba23  1  0.82315467  0.17684533  0.88731133  1
  Ba  Ba24  1  0.51014900  0.48985100  0.77567000  1
  Ba  Ba25  1  0.97970200  0.48985100  0.77567000  1
  Ba  Ba26  1  0.82315467  0.64630933  0.88731133  1
  Ge  Ge27  1  0.00000000  0.00000000  0.21587700  1
  Ge  Ge28  1  0.66666667  0.33333333  0.32954533  1
  Ge  Ge29  1  0.66666667  0.33333333  0.10816033  1
  Ge  Ge30  1  0.66666667  0.33333333  0.54921033  1
  Ge  Ge31  1  0.33333333  0.66666667  0.66287867  1
  Ge  Ge32  1  0.33333333  0.66666667  0.44149367  1
  Ge  Ge33  1  0.33333333  0.66666667  0.88254367  1
  Ge  Ge34  1  0.00000000  0.00000000  0.99621200  1
  Ge  Ge35  1  0.00000000  0.00000000  0.77482700  1
  O  O36  1  0.00000000  0.00000000  0.15347100  1
  O  O37  1  0.90905533  0.45452767  0.12816667  1
  O  O38  1  0.12038600  0.24077200  0.23722600  1
  O  O39  1  0.12087100  0.24174200  0.01719900  1
  O  O40  1  0.54547233  0.45452767  0.12816667  1
  O  O41  1  0.12038600  0.87961400  0.23722600  1
  O  O42  1  0.33333333  0.66666667  0.27629167  1
  O  O43  1  0.33333333  0.66666667  0.16422067  1
  O  O44  1  0.12087100  0.87912900  0.01719900  1
  O  O45  1  0.33333333  0.66666667  0.04944567  1
  O  O46  1  0.54547233  0.09094467  0.12816667  1
  O  O47  1  0.75825800  0.87912900  0.01719900  1
  O  O48  1  0.75922800  0.87961400  0.23722600  1
  O  O49  1  0.66666667  0.33333333  0.26707533  1
  O  O50  1  0.66666667  0.33333333  0.04620733  1
  O  O51  1  0.66666667  0.33333333  0.48680433  1
  O  O52  1  0.57572200  0.78786100  0.46150000  1
  O  O53  1  0.78705267  0.57410533  0.57055933  1
  O  O54  1  0.78753767  0.57507533  0.35053233  1
  O  O55  1  0.21213900  0.78786100  0.46150000  1
  O  O56  1  0.78705267  0.21294733  0.57055933  1
  O  O57  1  0.00000000  0.00000000  0.60962500  1
  O  O58  1  0.00000000  0.00000000  0.49755400  1
  O  O59  1  0.78753767  0.21246233  0.35053233  1
  O  O60  1  0.00000000  0.00000000  0.38277900  1
  O  O61  1  0.21213900  0.42427800  0.46150000  1
  O  O62  1  0.42492467  0.21246233  0.35053233  1
  O  O63  1  0.42589467  0.21294733  0.57055933  1
  O  O64  1  0.33333333  0.66666667  0.60040867  1
  O  O65  1  0.33333333  0.66666667  0.37954067  1
  O  O66  1  0.33333333  0.66666667  0.82013767  1
  O  O67  1  0.24238867  0.12119433  0.79483333  1
  O  O68  1  0.45371933  0.90743867  0.90389267  1
  O  O69  1  0.45420433  0.90840867  0.68386567  1
  O  O70  1  0.87880567  0.12119433  0.79483333  1
  O  O71  1  0.45371933  0.54628067  0.90389267  1
  O  O72  1  0.66666667  0.33333333  0.94295833  1
  O  O73  1  0.66666667  0.33333333  0.83088733  1
  O  O74  1  0.45420433  0.54579567  0.68386567  1
  O  O75  1  0.66666667  0.33333333  0.71611233  1
  O  O76  1  0.87880567  0.75761133  0.79483333  1
  O  O77  1  0.09159133  0.54579567  0.68386567  1
  O  O78  1  0.09256133  0.54628067  0.90389267  1
  O  O79  1  0.00000000  0.00000000  0.93374200  1
  O  O80  1  0.00000000  0.00000000  0.71287400  1
