# generated using pymatgen
data_La2Si2O7
_symmetry_space_group_name_H-M   'P 1'
_cell_length_a   6.53473400
_cell_length_b   8.59356500
_cell_length_c   15.74548018
_cell_angle_alpha   90.00000000
_cell_angle_beta   90.87526634
_cell_angle_gamma   90.00000000
_symmetry_Int_Tables_number   1
_chemical_formula_structural   La2Si2O7
_chemical_formula_sum   'La8 Si8 O28'
_cell_volume   884.11042894
_cell_formula_units_Z   4
loop_
 _symmetry_equiv_pos_site_id
 _symmetry_equiv_pos_as_xyz
  1  'x, y, z'
loop_
 _atom_site_type_symbol
 _atom_site_label
 _atom_site_symmetry_multiplicity
 _atom_site_fract_x
 _atom_site_fract_y
 _atom_site_fract_z
 _atom_site_occupancy
  La  La0  1  0.82131000  0.40076200  0.41557100  1
  La  La1  1  0.17869000  0.90076200  0.08442900  1
  La  La2  1  0.42581000  0.27706400  0.72447200  1
  La  La3  1  0.57419000  0.77706400  0.77552800  1
  La  La4  1  0.57419000  0.72293600  0.27552800  1
  La  La5  1  0.42581000  0.22293600  0.22447200  1
  La  La6  1  0.82131000  0.09923800  0.91557100  1
  La  La7  1  0.17869000  0.59923800  0.58442900  1
  Si  Si8  1  0.34162600  0.04980600  0.87830000  1
  Si  Si9  1  0.90021100  0.48800100  0.80113500  1
  Si  Si10  1  0.34162600  0.45019400  0.37830000  1
  Si  Si11  1  0.65837400  0.54980600  0.62170000  1
  Si  Si12  1  0.90021100  0.01199900  0.30113500  1
  Si  Si13  1  0.65837400  0.95019400  0.12170000  1
  Si  Si14  1  0.09978900  0.98800100  0.69886500  1
  Si  Si15  1  0.09978900  0.51199900  0.19886500  1
  O  O16  1  0.53474900  0.57591400  0.40121300  1
  O  O17  1  0.26300200  0.54309300  0.28094700  1
  O  O18  1  0.87747800  0.98609800  0.76216000  1
  O  O19  1  0.12252200  0.48609800  0.73784000  1
  O  O20  1  0.89287300  0.34158300  0.86378100  1
  O  O21  1  0.46525100  0.07591400  0.09878700  1
  O  O22  1  0.67872900  0.44733300  0.23242000  1
  O  O23  1  0.10712700  0.65841700  0.13621900  1
  O  O24  1  0.85033500  0.65793200  0.83813400  1
  O  O25  1  0.32127100  0.55266700  0.76758000  1
  O  O26  1  0.32127100  0.94733300  0.26758000  1
  O  O27  1  0.89287300  0.15841700  0.36378100  1
  O  O28  1  0.15154300  0.49757900  0.44228600  1
  O  O29  1  0.84845700  0.99757900  0.05771400  1
  O  O30  1  0.15154300  0.00242100  0.94228600  1
  O  O31  1  0.53474900  0.92408600  0.90121300  1
  O  O32  1  0.67872900  0.05266700  0.73242000  1
  O  O33  1  0.26300200  0.95690700  0.78094700  1
  O  O34  1  0.87747800  0.51390200  0.26216000  1
  O  O35  1  0.84845700  0.50242100  0.55771400  1
  O  O36  1  0.46525100  0.42408600  0.59878700  1
  O  O37  1  0.10712700  0.84158300  0.63621900  1
  O  O38  1  0.14966500  0.34206800  0.16186600  1
  O  O39  1  0.14966500  0.15793200  0.66186600  1
  O  O40  1  0.12252200  0.01390200  0.23784000  1
  O  O41  1  0.73699800  0.45690700  0.71905300  1
  O  O42  1  0.85033500  0.84206800  0.33813400  1
  O  O43  1  0.73699800  0.04309300  0.21905300  1
