# generated using pymatgen
data_CaLaI5
_symmetry_space_group_name_H-M   'P 1'
_cell_length_a   4.47663400
_cell_length_b   15.54323300
_cell_length_c   19.00277400
_cell_angle_alpha   90.00000000
_cell_angle_beta   90.00000000
_cell_angle_gamma   90.00000000
_symmetry_Int_Tables_number   1
_chemical_formula_structural   CaLaI5
_chemical_formula_sum   'Ca4 La4 I20'
_cell_volume   1322.23895974
_cell_formula_units_Z   4
loop_
 _symmetry_equiv_pos_site_id
 _symmetry_equiv_pos_as_xyz
  1  'x, y, z'
loop_
 _atom_site_type_symbol
 _atom_site_label
 _atom_site_symmetry_multiplicity
 _atom_site_fract_x
 _atom_site_fract_y
 _atom_site_fract_z
 _atom_site_occupancy
  Ca  Ca0  1  0.75000000  0.74622000  0.15567000  1
  Ca  Ca1  1  0.25000000  0.24622000  0.34433000  1
  Ca  Ca2  1  0.75000000  0.75378000  0.65567000  1
  Ca  Ca3  1  0.25000000  0.25378000  0.84433000  1
  La  La4  1  0.75000000  0.23909900  0.09327600  1
  La  La5  1  0.25000000  0.73909900  0.40672400  1
  La  La6  1  0.75000000  0.26090100  0.59327600  1
  La  La7  1  0.25000000  0.76090100  0.90672400  1
  I  I8  1  0.25000000  0.36142200  0.03140900  1
  I  I9  1  0.25000000  0.85741900  0.05525300  1
  I  I10  1  0.25000000  0.61068100  0.15383000  1
  I  I11  1  0.25000000  0.11777200  0.15674700  1
  I  I12  1  0.75000000  0.34433100  0.23788000  1
  I  I13  1  0.25000000  0.84433100  0.26212000  1
  I  I14  1  0.75000000  0.61777200  0.34325300  1
  I  I15  1  0.75000000  0.11068100  0.34617000  1
  I  I16  1  0.75000000  0.35741900  0.44474700  1
  I  I17  1  0.75000000  0.86142200  0.46859100  1
  I  I18  1  0.25000000  0.13857800  0.53140900  1
  I  I19  1  0.25000000  0.64258100  0.55525300  1
  I  I20  1  0.25000000  0.88931900  0.65383000  1
  I  I21  1  0.25000000  0.38222800  0.65674700  1
  I  I22  1  0.75000000  0.15566900  0.73788000  1
  I  I23  1  0.25000000  0.65566900  0.76212000  1
  I  I24  1  0.75000000  0.88222800  0.84325300  1
  I  I25  1  0.75000000  0.38931900  0.84617000  1
  I  I26  1  0.75000000  0.14258100  0.94474700  1
  I  I27  1  0.75000000  0.63857800  0.96859100  1
