# generated using pymatgen
data_Sm2(WO4)3
_symmetry_space_group_name_H-M   'P 1'
_cell_length_a   7.85397800
_cell_length_b   11.69618600
_cell_length_c   11.60357731
_cell_angle_alpha   90.00000000
_cell_angle_beta   109.65511712
_cell_angle_gamma   90.00000000
_symmetry_Int_Tables_number   1
_chemical_formula_structural   Sm2(WO4)3
_chemical_formula_sum   'Sm8 W12 O48'
_cell_volume   1003.81630351
_cell_formula_units_Z   4
loop_
 _symmetry_equiv_pos_site_id
 _symmetry_equiv_pos_as_xyz
  1  'x, y, z'
loop_
 _atom_site_type_symbol
 _atom_site_label
 _atom_site_symmetry_multiplicity
 _atom_site_fract_x
 _atom_site_fract_y
 _atom_site_fract_z
 _atom_site_occupancy
  Sm  Sm0  1  0.17927300  0.12707000  0.59485000  1
  Sm  Sm1  1  0.17927300  0.87293000  0.09485000  1
  Sm  Sm2  1  0.82072700  0.12707000  0.90515000  1
  Sm  Sm3  1  0.82072700  0.87293000  0.40515000  1
  Sm  Sm4  1  0.67927300  0.62707000  0.59485000  1
  Sm  Sm5  1  0.67927300  0.37293000  0.09485000  1
  Sm  Sm6  1  0.32072700  0.62707000  0.90515000  1
  Sm  Sm7  1  0.32072700  0.37293000  0.40515000  1
  W  W8  1  0.34696100  0.14461000  0.95233500  1
  W  W9  1  0.34696100  0.85539000  0.45233500  1
  W  W10  1  0.50000000  0.38186000  0.75000000  1
  W  W11  1  0.50000000  0.61814000  0.25000000  1
  W  W12  1  0.65303900  0.14461000  0.54766500  1
  W  W13  1  0.65303900  0.85539000  0.04766500  1
  W  W14  1  0.84696100  0.64461000  0.95233500  1
  W  W15  1  0.84696100  0.35539000  0.45233500  1
  W  W16  1  0.00000000  0.88186000  0.75000000  1
  W  W17  1  0.00000000  0.11814000  0.25000000  1
  W  W18  1  0.15303900  0.64461000  0.54766500  1
  W  W19  1  0.15303900  0.35539000  0.04766500  1
  O  O20  1  0.27833350  0.07348750  0.80345000  1
  O  O21  1  0.30418850  0.29199050  0.72022800  1
  O  O22  1  0.51289400  0.46024700  0.89088700  1
  O  O23  1  0.36030450  0.96581450  0.56103600  1
  O  O24  1  0.57662900  0.20004100  0.96228400  1
  O  O25  1  0.38766000  0.71317000  0.57612700  1
  O  O26  1  0.27833350  0.92651250  0.30345000  1
  O  O27  1  0.61234000  0.71317000  0.92387300  1
  O  O28  1  0.42337100  0.20004100  0.53771600  1
  O  O29  1  0.63969550  0.96581450  0.93896400  1
  O  O30  1  0.48710600  0.46024700  0.60911300  1
  O  O31  1  0.30418850  0.70800950  0.22022800  1
  O  O32  1  0.69581150  0.29199050  0.77977200  1
  O  O33  1  0.51289400  0.53975300  0.39088700  1
  O  O34  1  0.36030450  0.03418550  0.06103600  1
  O  O35  1  0.57662900  0.79995900  0.46228400  1
  O  O36  1  0.38766000  0.28683000  0.07612700  1
  O  O37  1  0.72166650  0.07348750  0.69655000  1
  O  O38  1  0.61234000  0.28683000  0.42387300  1
  O  O39  1  0.42337100  0.79995900  0.03771600  1
  O  O40  1  0.63969550  0.03418550  0.43896400  1
  O  O41  1  0.48710600  0.53975300  0.10911300  1
  O  O42  1  0.69581150  0.70800950  0.27977200  1
  O  O43  1  0.72166650  0.92651250  0.19655000  1
  O  O44  1  0.77833350  0.57348750  0.80345000  1
  O  O45  1  0.80418850  0.79199050  0.72022800  1
  O  O46  1  0.01289400  0.96024700  0.89088700  1
  O  O47  1  0.86030450  0.46581450  0.56103600  1
  O  O48  1  0.07662900  0.70004100  0.96228400  1
  O  O49  1  0.88766000  0.21317000  0.57612700  1
  O  O50  1  0.77833350  0.42651250  0.30345000  1
  O  O51  1  0.11234000  0.21317000  0.92387300  1
  O  O52  1  0.92337100  0.70004100  0.53771600  1
  O  O53  1  0.13969550  0.46581450  0.93896400  1
  O  O54  1  0.98710600  0.96024700  0.60911300  1
  O  O55  1  0.80418850  0.20800950  0.22022800  1
  O  O56  1  0.19581150  0.79199050  0.77977200  1
  O  O57  1  0.01289400  0.03975300  0.39088700  1
  O  O58  1  0.86030450  0.53418550  0.06103600  1
  O  O59  1  0.07662900  0.29995900  0.46228400  1
  O  O60  1  0.88766000  0.78683000  0.07612700  1
  O  O61  1  0.22166650  0.57348750  0.69655000  1
  O  O62  1  0.11234000  0.78683000  0.42387300  1
  O  O63  1  0.92337100  0.29995900  0.03771600  1
  O  O64  1  0.13969550  0.53418550  0.43896400  1
  O  O65  1  0.98710600  0.03975300  0.10911300  1
  O  O66  1  0.19581150  0.20800950  0.27977200  1
  O  O67  1  0.22166650  0.42651250  0.19655000  1
