# generated using pymatgen
data_BaYF5
_symmetry_space_group_name_H-M   'P 1'
_cell_length_a   7.44469800
_cell_length_b   8.66691534
_cell_length_c   11.37676363
_cell_angle_alpha   78.54620327
_cell_angle_beta   87.10929320
_cell_angle_gamma   75.68848739
_symmetry_Int_Tables_number   1
_chemical_formula_structural   BaYF5
_chemical_formula_sum   'Ba6 Y6 F30'
_cell_volume   697.11162722
_cell_formula_units_Z   6
loop_
 _symmetry_equiv_pos_site_id
 _symmetry_equiv_pos_as_xyz
  1  'x, y, z'
loop_
 _atom_site_type_symbol
 _atom_site_label
 _atom_site_symmetry_multiplicity
 _atom_site_fract_x
 _atom_site_fract_y
 _atom_site_fract_z
 _atom_site_occupancy
  Ba  Ba0  1  0.26840500  0.38025400  0.92747200  1
  Ba  Ba1  1  0.25815300  0.71952900  0.59743100  1
  Ba  Ba2  1  0.34375700  0.03622200  0.26476000  1
  Ba  Ba3  1  0.65624300  0.96377800  0.73524000  1
  Ba  Ba4  1  0.74184700  0.28047100  0.40256900  1
  Ba  Ba5  1  0.73159500  0.61974600  0.07252800  1
  Y  Y6  1  0.20585100  0.27796500  0.56816600  1
  Y  Y7  1  0.21739100  0.54876700  0.25858200  1
  Y  Y8  1  0.79505500  0.16730500  0.01334400  1
  Y  Y9  1  0.20494500  0.83269500  0.98665600  1
  Y  Y10  1  0.78260900  0.45123300  0.74141800  1
  Y  Y11  1  0.79414900  0.72203500  0.43183400  1
  F  F12  1  0.13481300  0.12453700  0.44619200  1
  F  F13  1  0.09098600  0.41037200  0.14906000  1
  F  F14  1  0.51637800  0.13253400  0.05809400  1
  F  F15  1  0.42353400  0.31277600  0.27785100  1
  F  F16  1  0.98720900  0.26677800  0.87510800  1
  F  F17  1  0.99015000  0.54363800  0.60635600  1
  F  F18  1  0.10014600  0.05591900  0.07164800  1
  F  F19  1  0.08169300  0.74906900  0.36557200  1
  F  F20  1  0.28177200  0.05666300  0.71106500  1
  F  F21  1  0.33570500  0.47760100  0.44965000  1
  F  F22  1  0.34779600  0.77085400  0.17828200  1
  F  F23  1  0.31677800  0.39456300  0.70031700  1
  F  F24  1  0.65087900  0.43027200  0.93959900  1
  F  F25  1  0.78182500  0.28865500  0.16485300  1
  F  F26  1  0.50522300  0.15927800  0.53981400  1
  F  F27  1  0.49477700  0.84072200  0.46018600  1
  F  F28  1  0.21817500  0.71134500  0.83514700  1
  F  F29  1  0.34912100  0.56972800  0.06040100  1
  F  F30  1  0.68322200  0.60543700  0.29968300  1
  F  F31  1  0.65220400  0.22914600  0.82171800  1
  F  F32  1  0.66429500  0.52239900  0.55035000  1
  F  F33  1  0.71822800  0.94333700  0.28893500  1
  F  F34  1  0.91830700  0.25093100  0.63442800  1
  F  F35  1  0.89985400  0.94408100  0.92835200  1
  F  F36  1  0.00985000  0.45636200  0.39364400  1
  F  F37  1  0.01279100  0.73322200  0.12489200  1
  F  F38  1  0.57646600  0.68722400  0.72214900  1
  F  F39  1  0.48362200  0.86746600  0.94190600  1
  F  F40  1  0.90901400  0.58962800  0.85094000  1
  F  F41  1  0.86518700  0.87546300  0.55380800  1
