# generated using pymatgen
data_B5H12NO12
_symmetry_space_group_name_H-M   'P 1'
_cell_length_a   9.33267200
_cell_length_b   11.11401400
_cell_length_c   11.46068600
_cell_angle_alpha   90.00000000
_cell_angle_beta   90.00000000
_cell_angle_gamma   90.00000000
_symmetry_Int_Tables_number   1
_chemical_formula_structural   B5H12NO12
_chemical_formula_sum   'B20 H48 N4 O48'
_cell_volume   1188.74185995
_cell_formula_units_Z   4
loop_
 _symmetry_equiv_pos_site_id
 _symmetry_equiv_pos_as_xyz
  1  'x, y, z'
loop_
 _atom_site_type_symbol
 _atom_site_label
 _atom_site_symmetry_multiplicity
 _atom_site_fract_x
 _atom_site_fract_y
 _atom_site_fract_z
 _atom_site_occupancy
  B  B0  1  0.10428600  0.00000000  0.50000000  1
  B  B1  1  0.60428600  0.00000000  0.00000000  1
  B  B2  1  0.19931100  0.90252700  0.31903300  1
  B  B3  1  0.19931100  0.09747300  0.68096700  1
  B  B4  1  0.69931100  0.90252700  0.18096700  1
  B  B5  1  0.69931100  0.09747300  0.81903300  1
  B  B6  1  0.51752250  0.55399850  0.30022000  1
  B  B7  1  0.51752250  0.44600150  0.69978000  1
  B  B8  1  0.51752250  0.05399850  0.19978000  1
  B  B9  1  0.51752250  0.94600150  0.80022000  1
  B  B10  1  0.60428600  0.50000000  0.50000000  1
  B  B11  1  0.10428600  0.50000000  0.00000000  1
  B  B12  1  0.69931100  0.40252700  0.31903300  1
  B  B13  1  0.69931100  0.59747300  0.68096700  1
  B  B14  1  0.19931100  0.40252700  0.18096700  1
  B  B15  1  0.19931100  0.59747300  0.81903300  1
  B  B16  1  0.01752250  0.05399850  0.30022000  1
  B  B17  1  0.01752250  0.94600150  0.69978000  1
  B  B18  1  0.01752250  0.55399850  0.19978000  1
  B  B19  1  0.01752250  0.44600150  0.80022000  1
  H  H20  1  0.27980250  0.82479950  0.17835100  1
  H  H21  1  0.27980250  0.17520050  0.82164900  1
  H  H22  1  0.77980250  0.82479950  0.32164900  1
  H  H23  1  0.77980250  0.17520050  0.67835100  1
  H  H24  1  0.37316650  0.68048450  0.25870700  1
  H  H25  1  0.37316650  0.31951550  0.74129300  1
  H  H26  1  0.37316650  0.18048450  0.24129300  1
  H  H27  1  0.37316650  0.81951550  0.75870700  1
  H  H28  1  0.73848650  0.74214350  0.50053100  1
  H  H29  1  0.73848650  0.25785650  0.49946900  1
  H  H30  1  0.73848650  0.24214350  0.99946900  1
  H  H31  1  0.73848650  0.75785650  0.00053100  1
  H  H32  1  0.84742100  0.85244000  0.50928200  1
  H  H33  1  0.84742100  0.14756000  0.49071800  1
  H  H34  1  0.34742100  0.85244000  0.99071800  1
  H  H35  1  0.34742100  0.14756000  0.00928200  1
  H  H36  1  0.08563000  0.93939300  0.04104600  1
  H  H37  1  0.08563000  0.06060700  0.95895400  1
  H  H38  1  0.58563000  0.93939300  0.45895400  1
  H  H39  1  0.58563000  0.06060700  0.54104600  1
  H  H40  1  0.45697400  0.45625800  0.93829200  1
  H  H41  1  0.45697400  0.54374200  0.06170800  1
  H  H42  1  0.45697400  0.95625800  0.56170800  1
  H  H43  1  0.45697400  0.04374200  0.43829200  1
  H  H44  1  0.77980250  0.32479950  0.17835100  1
  H  H45  1  0.77980250  0.67520050  0.82164900  1
  H  H46  1  0.27980250  0.32479950  0.32164900  1
  H  H47  1  0.27980250  0.67520050  0.67835100  1
  H  H48  1  0.87316650  0.18048450  0.25870700  1
  H  H49  1  0.87316650  0.81951550  0.74129300  1
  H  H50  1  0.87316650  0.68048450  0.24129300  1
  H  H51  1  0.87316650  0.31951550  0.75870700  1
  H  H52  1  0.23848650  0.24214350  0.50053100  1
  H  H53  1  0.23848650  0.75785650  0.49946900  1
  H  H54  1  0.23848650  0.74214350  0.99946900  1
  H  H55  1  0.23848650  0.25785650  0.00053100  1
  H  H56  1  0.34742100  0.35244000  0.50928200  1
  H  H57  1  0.34742100  0.64756000  0.49071800  1
  H  H58  1  0.84742100  0.35244000  0.99071800  1
  H  H59  1  0.84742100  0.64756000  0.00928200  1
  H  H60  1  0.58563000  0.43939300  0.04104600  1
  H  H61  1  0.58563000  0.56060700  0.95895400  1
  H  H62  1  0.08563000  0.43939300  0.45895400  1
  H  H63  1  0.08563000  0.56060700  0.54104600  1
  H  H64  1  0.95697400  0.95625800  0.93829200  1
  H  H65  1  0.95697400  0.04374200  0.06170800  1
  H  H66  1  0.95697400  0.45625800  0.56170800  1
  H  H67  1  0.95697400  0.54374200  0.43829200  1
  N  N68  1  0.01862500  0.00000000  0.00000000  1
  N  N69  1  0.51862500  0.00000000  0.50000000  1
  N  N70  1  0.51862500  0.50000000  0.00000000  1
  N  N71  1  0.01862500  0.50000000  0.50000000  1
  O  O72  1  0.19780050  0.91265350  0.43757800  1
  O  O73  1  0.19780050  0.08734650  0.56242200  1
  O  O74  1  0.69780050  0.91265350  0.06242200  1
  O  O75  1  0.69780050  0.08734650  0.93757800  1
  O  O76  1  0.51165100  0.56877700  0.41839600  1
  O  O77  1  0.51165100  0.43122300  0.58160400  1
  O  O78  1  0.51165100  0.06877700  0.08160400  1
  O  O79  1  0.51165100  0.93122300  0.91839600  1
  O  O80  1  0.11103500  0.97228800  0.24864700  1
  O  O81  1  0.11103500  0.02771200  0.75135300  1
  O  O82  1  0.61103500  0.97228800  0.25135300  1
  O  O83  1  0.61103500  0.02771200  0.74864700  1
  O  O84  1  0.28856100  0.82106300  0.26567200  1
  O  O85  1  0.28856100  0.17893700  0.73432800  1
  O  O86  1  0.78856100  0.82106300  0.23432800  1
  O  O87  1  0.78856100  0.17893700  0.76567200  1
  O  O88  1  0.43259950  0.61606950  0.22350100  1
  O  O89  1  0.43259950  0.38393050  0.77649900  1
  O  O90  1  0.43259950  0.11606950  0.27649900  1
  O  O91  1  0.43259950  0.88393050  0.72350100  1
  O  O92  1  0.75963450  0.82344050  0.46976900  1
  O  O93  1  0.75963450  0.17655950  0.53023100  1
  O  O94  1  0.25963450  0.82344050  0.03023100  1
  O  O95  1  0.25963450  0.17655950  0.96976900  1
  O  O96  1  0.69780050  0.41265350  0.43757800  1
  O  O97  1  0.69780050  0.58734650  0.56242200  1
  O  O98  1  0.19780050  0.41265350  0.06242200  1
  O  O99  1  0.19780050  0.58734650  0.93757800  1
  O  O100  1  0.01165100  0.06877700  0.41839600  1
  O  O101  1  0.01165100  0.93122300  0.58160400  1
  O  O102  1  0.01165100  0.56877700  0.08160400  1
  O  O103  1  0.01165100  0.43122300  0.91839600  1
  O  O104  1  0.61103500  0.47228800  0.24864700  1
  O  O105  1  0.61103500  0.52771200  0.75135300  1
  O  O106  1  0.11103500  0.47228800  0.25135300  1
  O  O107  1  0.11103500  0.52771200  0.74864700  1
  O  O108  1  0.78856100  0.32106300  0.26567200  1
  O  O109  1  0.78856100  0.67893700  0.73432800  1
  O  O110  1  0.28856100  0.32106300  0.23432800  1
  O  O111  1  0.28856100  0.67893700  0.76567200  1
  O  O112  1  0.93259950  0.11606950  0.22350100  1
  O  O113  1  0.93259950  0.88393050  0.77649900  1
  O  O114  1  0.93259950  0.61606950  0.27649900  1
  O  O115  1  0.93259950  0.38393050  0.72350100  1
  O  O116  1  0.25963450  0.32344050  0.46976900  1
  O  O117  1  0.25963450  0.67655950  0.53023100  1
  O  O118  1  0.75963450  0.32344050  0.03023100  1
  O  O119  1  0.75963450  0.67655950  0.96976900  1
