# generated using pymatgen
data_Hf2N2O
_symmetry_space_group_name_H-M   'P 1'
_cell_length_a   8.72327746
_cell_length_b   8.72431700
_cell_length_c   8.73437401
_cell_angle_alpha   109.57742337
_cell_angle_beta   109.29064490
_cell_angle_gamma   109.41605369
_symmetry_Int_Tables_number   1
_chemical_formula_structural   Hf2N2O
_chemical_formula_sum   'Hf16 N16 O8'
_cell_volume   512.52060805
_cell_formula_units_Z   8
loop_
 _symmetry_equiv_pos_site_id
 _symmetry_equiv_pos_as_xyz
  1  'x, y, z'
loop_
 _atom_site_type_symbol
 _atom_site_label
 _atom_site_symmetry_multiplicity
 _atom_site_fract_x
 _atom_site_fract_y
 _atom_site_fract_z
 _atom_site_occupancy
  Hf  Hf0  1  0.24008000  0.78449400  0.96736800  1
  Hf  Hf1  1  0.00149000  0.00719600  0.98851300  1
  Hf  Hf2  1  0.46815900  0.25437900  0.77554600  1
  Hf  Hf3  1  0.97482900  0.24951100  0.27896700  1
  Hf  Hf4  1  0.50047800  0.99945000  0.50274100  1
  Hf  Hf5  1  0.49738500  0.49778400  0.99138500  1
  Hf  Hf6  1  0.74782500  0.71702100  0.54192200  1
  Hf  Hf7  1  0.28098700  0.03048200  0.26674600  1
  Hf  Hf8  1  0.71517500  0.96596600  0.74640300  1
  Hf  Hf9  1  0.79315900  0.53431800  0.25131600  1
  Hf  Hf10  1  0.21252300  0.45864400  0.74728100  1
  Hf  Hf11  1  0.25355200  0.28759800  0.46219600  1
  Hf  Hf12  1  0.00188300  0.51122000  0.49904200  1
  Hf  Hf13  1  0.53360400  0.75640900  0.21650200  1
  Hf  Hf14  1  0.02758500  0.74986200  0.71637400  1
  Hf  Hf15  1  0.75908800  0.21268300  0.02809300  1
  N  N16  1  0.99205300  0.76307200  0.96872500  1
  N  N17  1  0.04801400  0.53093200  0.22617700  1
  N  N18  1  0.74285000  0.97055800  0.48196300  1
  N  N19  1  0.50692500  0.03759500  0.73439300  1
  N  N20  1  0.23143600  0.26398300  0.22913300  1
  N  N21  1  0.49271900  0.95786500  0.27096700  1
  N  N22  1  0.72547300  0.45483600  0.53171100  1
  N  N23  1  0.76825600  0.73610800  0.77690700  1
  N  N24  1  0.23830100  0.22404500  0.72910000  1
  N  N25  1  0.26309600  0.03309400  0.51544400  1
  N  N26  1  0.03445700  0.77549400  0.44987600  1
  N  N27  1  0.46079900  0.51176500  0.76721100  1
  N  N28  1  0.77540600  0.01103600  0.95057600  1
  N  N29  1  0.95182300  0.46724600  0.77301800  1
  N  N30  1  0.27422500  0.54339700  0.46280500  1
  N  N31  1  0.00567500  0.23479800  0.03753800  1
  O  O32  1  0.71924100  0.27486400  0.26441000  1
  O  O33  1  0.45300100  0.72256400  0.01650200  1
  O  O34  1  0.75403500  0.76767900  0.27354500  1
  O  O35  1  0.54010500  0.48999500  0.23478600  1
  O  O36  1  0.96695500  0.22309100  0.54950900  1
  O  O37  1  0.22865200  0.98909100  0.04796400  1
  O  O38  1  0.27515300  0.72662300  0.73933300  1
  O  O39  1  0.54354300  0.27324900  0.98801400  1
