# generated using pymatgen
data_Li3Mn3(PO4)4
_symmetry_space_group_name_H-M   'P 1'
_cell_length_a   6.14236200
_cell_length_b   11.57499900
_cell_length_c   8.41096316
_cell_angle_alpha   90.00000000
_cell_angle_beta   100.12467453
_cell_angle_gamma   90.00000000
_symmetry_Int_Tables_number   1
_chemical_formula_structural   Li3Mn3(PO4)4
_chemical_formula_sum   'Li6 Mn6 P8 O32'
_cell_volume   588.68892802
_cell_formula_units_Z   2
loop_
 _symmetry_equiv_pos_site_id
 _symmetry_equiv_pos_as_xyz
  1  'x, y, z'
loop_
 _atom_site_type_symbol
 _atom_site_label
 _atom_site_symmetry_multiplicity
 _atom_site_fract_x
 _atom_site_fract_y
 _atom_site_fract_z
 _atom_site_occupancy
  Li  Li0  1  0.86410700  0.80257200  0.35235300  1
  Li  Li1  1  0.12912000  0.60252100  0.94359100  1
  Li  Li2  1  0.13589300  0.30257200  0.64764700  1
  Li  Li3  1  0.87088000  0.10252100  0.05640900  1
  Li  Li4  1  0.63074900  0.89480200  0.95219900  1
  Li  Li5  1  0.36925100  0.39480200  0.04780100  1
  Mn  Mn6  1  0.63554200  0.18968900  0.65828200  1
  Mn  Mn7  1  0.58702200  0.58807200  0.72175700  1
  Mn  Mn8  1  0.41297800  0.08807200  0.27824300  1
  Mn  Mn9  1  0.07635900  0.91571500  0.71923500  1
  Mn  Mn10  1  0.36445800  0.68968900  0.34171800  1
  Mn  Mn11  1  0.92364100  0.41571500  0.28076500  1
  P  P12  1  0.37407000  0.12888200  0.91141300  1
  P  P13  1  0.86444200  0.37082800  0.91692800  1
  P  P14  1  0.55150900  0.91539800  0.60177400  1
  P  P15  1  0.44849100  0.41539800  0.39822600  1
  P  P16  1  0.13555800  0.87082800  0.08307200  1
  P  P17  1  0.62593000  0.62888200  0.08858700  1
  P  P18  1  0.93277500  0.08369100  0.40587800  1
  P  P19  1  0.06722500  0.58369100  0.59412200  1
  O  O20  1  0.37571700  0.88437400  0.70363600  1
  O  O21  1  0.86716900  0.26466000  0.80055000  1
  O  O22  1  0.60729700  0.72471400  0.21969300  1
  O  O23  1  0.00743700  0.46320800  0.51466200  1
  O  O24  1  0.91923300  0.93289300  0.08750100  1
  O  O25  1  0.49604300  0.54159600  0.47669500  1
  O  O26  1  0.23215800  0.42011400  0.27199200  1
  O  O27  1  0.13283100  0.76466000  0.19945000  1
  O  O28  1  0.15706100  0.06372400  0.85346100  1
  O  O29  1  0.43808500  0.32328200  0.52513100  1
  O  O30  1  0.27584600  0.57721400  0.72889000  1
  O  O31  1  0.34564800  0.94138900  0.14273800  1
  O  O32  1  0.72415400  0.07721400  0.27111000  1
  O  O33  1  0.99256300  0.96320800  0.48533800  1
  O  O34  1  0.39270300  0.22471400  0.78030700  1
  O  O35  1  0.84293900  0.56372400  0.14653900  1
  O  O36  1  0.89365500  0.17638100  0.53168100  1
  O  O37  1  0.13928600  0.81633700  0.91275400  1
  O  O38  1  0.50395700  0.04159600  0.52330500  1
  O  O39  1  0.36189600  0.18891300  0.07747500  1
  O  O40  1  0.65435200  0.44138900  0.85726200  1
  O  O41  1  0.08076700  0.43289300  0.91249900  1
  O  O42  1  0.10634500  0.67638100  0.46831900  1
  O  O43  1  0.63810400  0.68891300  0.92252500  1
  O  O44  1  0.11758300  0.12669700  0.31641200  1
  O  O45  1  0.86071400  0.31633700  0.08724600  1
  O  O46  1  0.58960700  0.06233500  0.91779100  1
  O  O47  1  0.88241700  0.62669700  0.68358800  1
  O  O48  1  0.56191500  0.82328200  0.47486900  1
  O  O49  1  0.62428300  0.38437400  0.29636400  1
  O  O50  1  0.41039300  0.56233500  0.08220900  1
  O  O51  1  0.76784200  0.92011400  0.72800800  1
