# generated using pymatgen
data_Na2Ti7O15
_symmetry_space_group_name_H-M   'P 1'
_cell_length_a   7.54106800
_cell_length_b   7.88110873
_cell_length_c   21.37322969
_cell_angle_alpha   95.69746014
_cell_angle_beta   90.00254133
_cell_angle_gamma   103.83788941
_symmetry_Int_Tables_number   1
_chemical_formula_structural   Na2Ti7O15
_chemical_formula_sum   'Na8 Ti28 O60'
_cell_volume   1226.92085725
_cell_formula_units_Z   4
loop_
 _symmetry_equiv_pos_site_id
 _symmetry_equiv_pos_as_xyz
  1  'x, y, z'
loop_
 _atom_site_type_symbol
 _atom_site_label
 _atom_site_symmetry_multiplicity
 _atom_site_fract_x
 _atom_site_fract_y
 _atom_site_fract_z
 _atom_site_occupancy
  Na  Na0  1  0.26675100  0.06783600  0.60282300  1
  Na  Na1  1  0.76730800  0.06850300  0.60201700  1
  Na  Na2  1  0.74956700  0.99777100  0.99673700  1
  Na  Na3  1  0.25043300  0.00222900  0.00326300  1
  Na  Na4  1  0.78234700  0.12959400  0.18425500  1
  Na  Na5  1  0.21765300  0.87040600  0.81574500  1
  Na  Na6  1  0.73324900  0.93216400  0.39717700  1
  Na  Na7  1  0.23269200  0.93149700  0.39798300  1
  Ti  Ti8  1  0.54934100  0.19488500  0.75726200  1
  Ti  Ti9  1  0.04828600  0.19639700  0.75725100  1
  Ti  Ti10  1  0.07099900  0.28186000  0.90082100  1
  Ti  Ti11  1  0.56984100  0.28162500  0.90132300  1
  Ti  Ti12  1  0.06205200  0.24658600  0.32774800  1
  Ti  Ti13  1  0.56143900  0.24755000  0.32774000  1
  Ti  Ti14  1  0.58340200  0.33367100  0.47330600  1
  Ti  Ti15  1  0.08358200  0.33379500  0.47342600  1
  Ti  Ti16  1  0.37746600  0.50627500  0.81237200  1
  Ti  Ti17  1  0.87603000  0.50799600  0.81284500  1
  Ti  Ti18  1  0.11108300  0.44519100  0.61685100  1
  Ti  Ti19  1  0.61112700  0.44410900  0.61666500  1
  Ti  Ti20  1  0.90286100  0.60926300  0.95590700  1
  Ti  Ti21  1  0.40145300  0.60921000  0.95516400  1
  Ti  Ti22  1  0.59854700  0.39079000  0.04483600  1
  Ti  Ti23  1  0.09713900  0.39073700  0.04409300  1
  Ti  Ti24  1  0.38887300  0.55589100  0.38333500  1
  Ti  Ti25  1  0.88891700  0.55480900  0.38314900  1
  Ti  Ti26  1  0.62253400  0.49372500  0.18762800  1
  Ti  Ti27  1  0.12397000  0.49200400  0.18715500  1
  Ti  Ti28  1  0.41659800  0.66632900  0.52669400  1
  Ti  Ti29  1  0.91641800  0.66620500  0.52657400  1
  Ti  Ti30  1  0.43856100  0.75245000  0.67226000  1
  Ti  Ti31  1  0.93794800  0.75341400  0.67225200  1
  Ti  Ti32  1  0.43015900  0.71837500  0.09867700  1
  Ti  Ti33  1  0.92900100  0.71814000  0.09917900  1
  Ti  Ti34  1  0.45065900  0.80511500  0.24273800  1
  Ti  Ti35  1  0.95171400  0.80360300  0.24274900  1
  O  O36  1  0.51155700  0.09961400  0.84293900  1
  O  O37  1  0.03823300  0.09933400  0.84285900  1
  O  O38  1  0.04901100  0.19496800  0.98211600  1
  O  O39  1  0.54840500  0.19508100  0.98211900  1
  O  O40  1  0.99820200  0.02442500  0.28555300  1
  O  O41  1  0.51437100  0.02479400  0.28555600  1
  O  O42  1  0.81297100  0.25349700  0.76798700  1
  O  O43  1  0.31443300  0.25633500  0.76714300  1
  O  O44  1  0.53609600  0.14781100  0.41277400  1
  O  O45  1  0.03775100  0.14776300  0.41286800  1
  O  O46  1  0.34000600  0.35936200  0.90264800  1
  O  O47  1  0.83863900  0.35551500  0.90187000  1
  O  O48  1  0.56240900  0.24916300  0.55168500  1
  O  O49  1  0.06241700  0.24979000  0.55176200  1
  O  O50  1  0.07762900  0.31199500  0.68022900  1
  O  O51  1  0.57838000  0.31210100  0.68029100  1
  O  O52  1  0.32546700  0.30197000  0.33695200  1
  O  O53  1  0.82543600  0.30133500  0.33821400  1
  O  O54  1  0.61037100  0.44077300  0.82303700  1
  O  O55  1  0.10913200  0.43764900  0.82276400  1
  O  O56  1  0.35204300  0.40793100  0.47035000  1
  O  O57  1  0.85190100  0.40757100  0.47035300  1
  O  O58  1  0.06224100  0.30375300  0.11987600  1
  O  O59  1  0.58956200  0.30321600  0.12003600  1
  O  O60  1  0.13577900  0.54261900  0.96295400  1
  O  O61  1  0.63627100  0.54557800  0.96123800  1
  O  O62  1  0.59985700  0.36661400  0.25151300  1
  O  O63  1  0.08339400  0.36620300  0.25137300  1
  O  O64  1  0.37774100  0.51032300  0.60870100  1
  O  O65  1  0.87729100  0.51016400  0.60865000  1
  O  O66  1  0.12270900  0.48983600  0.39135000  1
  O  O67  1  0.62225900  0.48967700  0.39129900  1
  O  O68  1  0.91660600  0.63379700  0.74862700  1
  O  O69  1  0.40014300  0.63338600  0.74848700  1
  O  O70  1  0.36372900  0.45442200  0.03876200  1
  O  O71  1  0.86422100  0.45738100  0.03704600  1
  O  O72  1  0.93775900  0.69624700  0.88012400  1
  O  O73  1  0.41043800  0.69678400  0.87996400  1
  O  O74  1  0.64795700  0.59206900  0.52965000  1
  O  O75  1  0.14809900  0.59242900  0.52964700  1
  O  O76  1  0.89086800  0.56235100  0.17723600  1
  O  O77  1  0.38962900  0.55922700  0.17696300  1
  O  O78  1  0.67453300  0.69803000  0.66304800  1
  O  O79  1  0.17456400  0.69866500  0.66178600  1
  O  O80  1  0.42162000  0.68789900  0.31970900  1
  O  O81  1  0.92237100  0.68800500  0.31977100  1
  O  O82  1  0.43759100  0.75083700  0.44831500  1
  O  O83  1  0.93758300  0.75021000  0.44823800  1
  O  O84  1  0.16136100  0.64448500  0.09813000  1
  O  O85  1  0.65999400  0.64063800  0.09735200  1
  O  O86  1  0.96224900  0.85223700  0.58713200  1
  O  O87  1  0.46390400  0.85218900  0.58722600  1
  O  O88  1  0.18702900  0.74650300  0.23201300  1
  O  O89  1  0.68556700  0.74366500  0.23285700  1
  O  O90  1  0.48562900  0.97520600  0.71444400  1
  O  O91  1  0.00179800  0.97557500  0.71444700  1
  O  O92  1  0.45159500  0.80491900  0.01788100  1
  O  O93  1  0.95098900  0.80503200  0.01788400  1
  O  O94  1  0.96176700  0.90066600  0.15714100  1
  O  O95  1  0.48844300  0.90038600  0.15706100  1
