# generated using pymatgen
data_Li2Ni(PO4)2
_symmetry_space_group_name_H-M   'P 1'
_cell_length_a   8.21160000
_cell_length_b   10.36919600
_cell_length_c   8.30770216
_cell_angle_alpha   90.00000000
_cell_angle_beta   103.83777758
_cell_angle_gamma   90.00000000
_symmetry_Int_Tables_number   1
_chemical_formula_structural   Li2Ni(PO4)2
_chemical_formula_sum   'Li8 Ni4 P8 O32'
_cell_volume   686.85116307
_cell_formula_units_Z   4
loop_
 _symmetry_equiv_pos_site_id
 _symmetry_equiv_pos_as_xyz
  1  'x, y, z'
loop_
 _atom_site_type_symbol
 _atom_site_label
 _atom_site_symmetry_multiplicity
 _atom_site_fract_x
 _atom_site_fract_y
 _atom_site_fract_z
 _atom_site_occupancy
  Li  Li0  1  0.39475500  0.83006100  0.16433000  1
  Li  Li1  1  0.39010200  0.66989800  0.64885100  1
  Li  Li2  1  0.60989800  0.16989800  0.35114900  1
  Li  Li3  1  0.44987300  0.56832000  0.97090800  1
  Li  Li4  1  0.60524500  0.33006100  0.83567000  1
  Li  Li5  1  0.35517300  0.14918200  0.57998600  1
  Li  Li6  1  0.64482700  0.64918200  0.42001400  1
  Li  Li7  1  0.55012700  0.06832000  0.02909200  1
  Ni  Ni8  1  0.91088400  0.66556900  0.16384500  1
  Ni  Ni9  1  0.10253700  0.34370100  0.33762700  1
  Ni  Ni10  1  0.08911600  0.16556900  0.83615500  1
  Ni  Ni11  1  0.89746300  0.84370100  0.66237300  1
  P  P12  1  0.72382300  0.41719400  0.21503500  1
  P  P13  1  0.76646600  0.90084700  0.29257100  1
  P  P14  1  0.23541500  0.09682000  0.20452800  1
  P  P15  1  0.71470000  0.08845400  0.72069400  1
  P  P16  1  0.76458500  0.59682000  0.79547200  1
  P  P17  1  0.23353400  0.40084700  0.70742900  1
  P  P18  1  0.28530000  0.58845400  0.27930600  1
  P  P19  1  0.27617700  0.91719400  0.78496500  1
  O  O20  1  0.08848600  0.11325800  0.04978500  1
  O  O21  1  0.91143100  0.89673900  0.45441800  1
  O  O22  1  0.24097700  0.44234200  0.24496300  1
  O  O23  1  0.87770100  0.15891300  0.70168600  1
  O  O24  1  0.71964300  0.03858800  0.23722800  1
  O  O25  1  0.59480700  0.41075600  0.04862800  1
  O  O26  1  0.73741100  0.45567300  0.74361100  1
  O  O27  1  0.61672200  0.82340900  0.32006700  1
  O  O28  1  0.34833500  0.85630000  0.64999800  1
  O  O29  1  0.16426700  0.33276700  0.84619300  1
  O  O30  1  0.34798900  0.64316500  0.13472500  1
  O  O31  1  0.40118300  0.14584200  0.16993300  1
  O  O32  1  0.19361600  0.17529800  0.35095400  1
  O  O33  1  0.76631200  0.56334100  0.25893100  1
  O  O34  1  0.23368800  0.06334100  0.74106900  1
  O  O35  1  0.83573300  0.83276700  0.15380700  1
  O  O36  1  0.58161300  0.10526000  0.55935500  1
  O  O37  1  0.26258900  0.95567300  0.25638900  1
  O  O38  1  0.65166500  0.35630000  0.35000200  1
  O  O39  1  0.75902300  0.94234200  0.75503700  1
  O  O40  1  0.88577200  0.34434500  0.20316600  1
  O  O41  1  0.65201100  0.14316500  0.86527500  1
  O  O42  1  0.38327800  0.32340900  0.67993300  1
  O  O43  1  0.40519300  0.91075600  0.95137200  1
  O  O44  1  0.28035700  0.53858800  0.76277200  1
  O  O45  1  0.08856900  0.39673900  0.54558200  1
  O  O46  1  0.80638400  0.67529800  0.64904600  1
  O  O47  1  0.41838700  0.60526000  0.44064500  1
  O  O48  1  0.91151400  0.61325800  0.95021500  1
  O  O49  1  0.59881700  0.64584200  0.83006700  1
  O  O50  1  0.12229900  0.65891300  0.29831400  1
  O  O51  1  0.11422800  0.84434500  0.79683400  1
