# generated using pymatgen
data_Li10Cu(SiO5)2
_symmetry_space_group_name_H-M   'P 1'
_cell_length_a   30.17456200
_cell_length_b   6.13732000
_cell_length_c   5.19563644
_cell_angle_alpha   90.00000000
_cell_angle_beta   99.55073924
_cell_angle_gamma   90.00000000
_symmetry_Int_Tables_number   1
_chemical_formula_structural   Li10Cu(SiO5)2
_chemical_formula_sum   'Li40 Cu4 Si8 O40'
_cell_volume   948.84801862
_cell_formula_units_Z   4
loop_
 _symmetry_equiv_pos_site_id
 _symmetry_equiv_pos_as_xyz
  1  'x, y, z'
loop_
 _atom_site_type_symbol
 _atom_site_label
 _atom_site_symmetry_multiplicity
 _atom_site_fract_x
 _atom_site_fract_y
 _atom_site_fract_z
 _atom_site_occupancy
  Li  Li0  1  0.00995900  0.50000000  0.27208700  1
  Li  Li1  1  0.06835700  0.70455600  0.90195300  1
  Li  Li2  1  0.06835700  0.29544400  0.90195300  1
  Li  Li3  1  0.13270800  0.00000000  0.77843500  1
  Li  Li4  1  0.13220450  0.78199450  0.24665300  1
  Li  Li5  1  0.13220450  0.21800550  0.24665300  1
  Li  Li6  1  0.17500000  0.50000000  0.92789100  1
  Li  Li7  1  0.19566950  0.75637350  0.60396000  1
  Li  Li8  1  0.19566950  0.24362650  0.60396000  1
  Li  Li9  1  0.23075500  0.50000000  0.32230700  1
  Li  Li10  1  0.26924500  0.00000000  0.67769300  1
  Li  Li11  1  0.30433050  0.74362650  0.39604000  1
  Li  Li12  1  0.30433050  0.25637350  0.39604000  1
  Li  Li13  1  0.32500000  0.00000000  0.07210900  1
  Li  Li14  1  0.36779550  0.28199450  0.75334700  1
  Li  Li15  1  0.36779550  0.71800550  0.75334700  1
  Li  Li16  1  0.36729200  0.50000000  0.22156500  1
  Li  Li17  1  0.43164300  0.79544400  0.09804700  1
  Li  Li18  1  0.43164300  0.20455600  0.09804700  1
  Li  Li19  1  0.49004100  0.00000000  0.72791300  1
  Li  Li20  1  0.50995900  0.00000000  0.27208700  1
  Li  Li21  1  0.56835700  0.20455600  0.90195300  1
  Li  Li22  1  0.56835700  0.79544400  0.90195300  1
  Li  Li23  1  0.63270800  0.50000000  0.77843500  1
  Li  Li24  1  0.63220450  0.28199450  0.24665300  1
  Li  Li25  1  0.63220450  0.71800550  0.24665300  1
  Li  Li26  1  0.67500000  0.00000000  0.92789100  1
  Li  Li27  1  0.69566950  0.25637350  0.60396000  1
  Li  Li28  1  0.69566950  0.74362650  0.60396000  1
  Li  Li29  1  0.73075500  0.00000000  0.32230700  1
  Li  Li30  1  0.76924500  0.50000000  0.67769300  1
  Li  Li31  1  0.80433050  0.24362650  0.39604000  1
  Li  Li32  1  0.80433050  0.75637350  0.39604000  1
  Li  Li33  1  0.82500000  0.50000000  0.07210900  1
  Li  Li34  1  0.86779550  0.78199450  0.75334700  1
  Li  Li35  1  0.86779550  0.21800550  0.75334700  1
  Li  Li36  1  0.86729200  0.00000000  0.22156500  1
  Li  Li37  1  0.93164300  0.29544400  0.09804700  1
  Li  Li38  1  0.93164300  0.70455600  0.09804700  1
  Li  Li39  1  0.99004100  0.50000000  0.72791300  1
  Cu  Cu40  1  0.03684200  0.00000000  0.12057700  1
  Cu  Cu41  1  0.46315800  0.50000000  0.87942300  1
  Cu  Cu42  1  0.53684200  0.50000000  0.12057700  1
  Cu  Cu43  1  0.96315800  0.00000000  0.87942300  1
  Si  Si44  1  0.10047500  0.50000000  0.51249900  1
  Si  Si45  1  0.21941200  0.00000000  0.13105700  1
  Si  Si46  1  0.28058800  0.50000000  0.86894300  1
  Si  Si47  1  0.39952500  0.00000000  0.48750100  1
  Si  Si48  1  0.60047500  0.00000000  0.51249900  1
  Si  Si49  1  0.71941200  0.50000000  0.13105700  1
  Si  Si50  1  0.78058800  0.00000000  0.86894300  1
  Si  Si51  1  0.89952500  0.50000000  0.48750100  1
  O  O52  1  0.05112400  0.50000000  0.61037200  1
  O  O53  1  0.09473600  0.00000000  0.05249300  1
  O  O54  1  0.09493900  0.50000000  0.18905500  1
  O  O55  1  0.13003900  0.71290700  0.62695500  1
  O  O56  1  0.13003900  0.28709300  0.62695500  1
  O  O57  1  0.19420100  0.77692700  0.22034700  1
  O  O58  1  0.19420100  0.22307300  0.22034700  1
  O  O59  1  0.21424100  0.00000000  0.81021000  1
  O  O60  1  0.22896200  0.50000000  0.72063600  1
  O  O61  1  0.27103800  0.00000000  0.27936400  1
  O  O62  1  0.28575900  0.50000000  0.18979000  1
  O  O63  1  0.30579900  0.27692700  0.77965300  1
  O  O64  1  0.30579900  0.72307300  0.77965300  1
  O  O65  1  0.36996100  0.21290700  0.37304500  1
  O  O66  1  0.36996100  0.78709300  0.37304500  1
  O  O67  1  0.40506100  0.00000000  0.81094500  1
  O  O68  1  0.40526400  0.50000000  0.94750700  1
  O  O69  1  0.44887600  0.00000000  0.38962800  1
  O  O70  1  0.00000000  0.75419400  0.00000000  1
  O  O71  1  0.00000000  0.24580600  0.00000000  1
  O  O72  1  0.55112400  0.00000000  0.61037200  1
  O  O73  1  0.59473600  0.50000000  0.05249300  1
  O  O74  1  0.59493900  0.00000000  0.18905500  1
  O  O75  1  0.63003900  0.21290700  0.62695500  1
  O  O76  1  0.63003900  0.78709300  0.62695500  1
  O  O77  1  0.69420100  0.27692700  0.22034700  1
  O  O78  1  0.69420100  0.72307300  0.22034700  1
  O  O79  1  0.71424100  0.50000000  0.81021000  1
  O  O80  1  0.72896200  0.00000000  0.72063600  1
  O  O81  1  0.77103800  0.50000000  0.27936400  1
  O  O82  1  0.78575900  0.00000000  0.18979000  1
  O  O83  1  0.80579900  0.77692700  0.77965300  1
  O  O84  1  0.80579900  0.22307300  0.77965300  1
  O  O85  1  0.86996100  0.71290700  0.37304500  1
  O  O86  1  0.86996100  0.28709300  0.37304500  1
  O  O87  1  0.90506100  0.50000000  0.81094500  1
  O  O88  1  0.90526400  0.00000000  0.94750700  1
  O  O89  1  0.94887600  0.50000000  0.38962800  1
  O  O90  1  0.50000000  0.25419400  0.00000000  1
  O  O91  1  0.50000000  0.74580600  0.00000000  1
