# generated using pymatgen
data_Li4Nb3Cu3(SnO8)2
_symmetry_space_group_name_H-M   'P 1'
_cell_length_a   10.85830657
_cell_length_b   6.08652692
_cell_length_c   10.00304962
_cell_angle_alpha   90.00000000
_cell_angle_beta   93.00142076
_cell_angle_gamma   90.00000000
_symmetry_Int_Tables_number   1
_chemical_formula_structural   Li4Nb3Cu3(SnO8)2
_chemical_formula_sum   'Li8 Nb6 Cu6 Sn4 O32'
_cell_volume   660.18843377
_cell_formula_units_Z   2
loop_
 _symmetry_equiv_pos_site_id
 _symmetry_equiv_pos_as_xyz
  1  'x, y, z'
loop_
 _atom_site_type_symbol
 _atom_site_label
 _atom_site_symmetry_multiplicity
 _atom_site_fract_x
 _atom_site_fract_y
 _atom_site_fract_z
 _atom_site_occupancy
  Li  Li0  1  0.66973950  0.00000000  0.08671800  1
  Li  Li1  1  0.50174900  0.50000000  0.00245300  1
  Li  Li2  1  0.52296600  0.50000000  0.52168500  1
  Li  Li3  1  0.84315600  0.50000000  0.61290700  1
  Li  Li4  1  0.16973950  0.50000000  0.08671800  1
  Li  Li5  1  0.00174900  0.00000000  0.00245300  1
  Li  Li6  1  0.02296600  0.00000000  0.52168500  1
  Li  Li7  1  0.34315600  0.00000000  0.61290700  1
  Nb  Nb8  1  0.83024250  0.00000000  0.78064000  1
  Nb  Nb9  1  0.91013950  0.74798250  0.28704200  1
  Nb  Nb10  1  0.91013950  0.25201750  0.28704200  1
  Nb  Nb11  1  0.33024250  0.50000000  0.78064000  1
  Nb  Nb12  1  0.41013950  0.24798250  0.28704200  1
  Nb  Nb13  1  0.41013950  0.75201750  0.28704200  1
  Cu  Cu14  1  0.58549400  0.24330500  0.79150800  1
  Cu  Cu15  1  0.58549400  0.75669500  0.79150800  1
  Cu  Cu16  1  0.67663050  0.50000000  0.28241600  1
  Cu  Cu17  1  0.08549400  0.74330500  0.79150800  1
  Cu  Cu18  1  0.08549400  0.25669500  0.79150800  1
  Cu  Cu19  1  0.17663050  0.00000000  0.28241600  1
  Sn  Sn20  1  0.65174300  0.00000000  0.52215800  1
  Sn  Sn21  1  0.81736800  0.50000000  0.99936900  1
  Sn  Sn22  1  0.15174300  0.50000000  0.52215800  1
  Sn  Sn23  1  0.31736800  0.00000000  0.99936900  1
  O  O24  1  0.57134150  0.25013850  0.40385700  1
  O  O25  1  0.52246050  0.00000000  0.66652100  1
  O  O26  1  0.67365200  0.00000000  0.88838800  1
  O  O27  1  0.99931550  0.00000000  0.70452100  1
  O  O28  1  0.98975100  0.00000000  0.19153800  1
  O  O29  1  0.57134150  0.74986150  0.40385700  1
  O  O30  1  0.76033450  0.21495650  0.64193900  1
  O  O31  1  0.76033450  0.78504350  0.64193900  1
  O  O32  1  0.64902200  0.50000000  0.90530400  1
  O  O33  1  0.83302500  0.00000000  0.38987300  1
  O  O34  1  0.76864500  0.73184700  0.15334800  1
  O  O35  1  0.76864500  0.26815300  0.15334800  1
  O  O36  1  0.85549350  0.50000000  0.40302100  1
  O  O37  1  0.89687450  0.75838250  0.90544800  1
  O  O38  1  0.97789850  0.50000000  0.16820800  1
  O  O39  1  0.89687450  0.24161750  0.90544800  1
  O  O40  1  0.07134150  0.75013850  0.40385700  1
  O  O41  1  0.02246050  0.50000000  0.66652100  1
  O  O42  1  0.17365200  0.50000000  0.88838800  1
  O  O43  1  0.49931550  0.50000000  0.70452100  1
  O  O44  1  0.48975100  0.50000000  0.19153800  1
  O  O45  1  0.07134150  0.24986150  0.40385700  1
  O  O46  1  0.26033450  0.71495650  0.64193900  1
  O  O47  1  0.26033450  0.28504350  0.64193900  1
  O  O48  1  0.14902200  0.00000000  0.90530400  1
  O  O49  1  0.33302500  0.50000000  0.38987300  1
  O  O50  1  0.26864500  0.23184700  0.15334800  1
  O  O51  1  0.26864500  0.76815300  0.15334800  1
  O  O52  1  0.35549350  0.00000000  0.40302100  1
  O  O53  1  0.39687450  0.25838250  0.90544800  1
  O  O54  1  0.47789850  0.00000000  0.16820800  1
  O  O55  1  0.39687450  0.74161750  0.90544800  1
