# generated using pymatgen
data_LiSb(PO3)4
_symmetry_space_group_name_H-M   'P 1'
_cell_length_a   12.58944600
_cell_length_b   8.67297600
_cell_length_c   10.81114053
_cell_angle_alpha   90.00000000
_cell_angle_beta   120.53727744
_cell_angle_gamma   90.00000000
_symmetry_Int_Tables_number   1
_chemical_formula_structural   LiSb(PO3)4
_chemical_formula_sum   'Li4 Sb4 P16 O48'
_cell_volume   1016.71703851
_cell_formula_units_Z   4
loop_
 _symmetry_equiv_pos_site_id
 _symmetry_equiv_pos_as_xyz
  1  'x, y, z'
loop_
 _atom_site_type_symbol
 _atom_site_label
 _atom_site_symmetry_multiplicity
 _atom_site_fract_x
 _atom_site_fract_y
 _atom_site_fract_z
 _atom_site_occupancy
  Li  Li0  1  0.50000000  0.50534900  0.75000000  1
  Li  Li1  1  0.00000000  0.99465100  0.25000000  1
  Li  Li2  1  0.00000000  0.00534900  0.75000000  1
  Li  Li3  1  0.50000000  0.49465100  0.25000000  1
  Sb  Sb4  1  0.25000000  0.25000000  0.50000000  1
  Sb  Sb5  1  0.25000000  0.75000000  0.00000000  1
  Sb  Sb6  1  0.75000000  0.75000000  0.50000000  1
  Sb  Sb7  1  0.75000000  0.25000000  0.00000000  1
  P  P8  1  0.18735050  0.49325150  0.18930800  1
  P  P9  1  0.98993650  0.73560150  0.02193900  1
  P  P10  1  0.01006350  0.73560150  0.47806100  1
  P  P11  1  0.18735050  0.50674850  0.68930800  1
  P  P12  1  0.31264950  0.99325150  0.31069200  1
  P  P13  1  0.48993650  0.76439850  0.52193900  1
  P  P14  1  0.51006350  0.76439850  0.97806100  1
  P  P15  1  0.31264950  0.00674850  0.81069200  1
  P  P16  1  0.68735050  0.99325150  0.18930800  1
  P  P17  1  0.48993650  0.23560150  0.02193900  1
  P  P18  1  0.51006350  0.23560150  0.47806100  1
  P  P19  1  0.68735050  0.00674850  0.68930800  1
  P  P20  1  0.81264950  0.49325150  0.31069200  1
  P  P21  1  0.98993650  0.26439850  0.52193900  1
  P  P22  1  0.01006350  0.26439850  0.97806100  1
  P  P23  1  0.81264950  0.50674850  0.81069200  1
  O  O24  1  0.22000900  0.42827600  0.33263900  1
  O  O25  1  0.54495100  0.25902700  0.92581100  1
  O  O26  1  0.07491850  0.60953550  0.14550900  1
  O  O27  1  0.96564900  0.86692900  0.09003700  1
  O  O28  1  0.29039150  0.42783750  0.67871200  1
  O  O29  1  0.36359200  0.13804500  0.93212100  1
  O  O30  1  0.54495100  0.74097300  0.42581100  1
  O  O31  1  0.03435100  0.86692900  0.40996300  1
  O  O32  1  0.13640800  0.63804500  0.56787900  1
  O  O33  1  0.72000900  0.07172400  0.83263900  1
  O  O34  1  0.92508150  0.60953550  0.35449100  1
  O  O35  1  0.20960850  0.92783750  0.82128800  1
  O  O36  1  0.29039150  0.57216250  0.17871200  1
  O  O37  1  0.57491850  0.89046450  0.64550900  1
  O  O38  1  0.77999100  0.42827600  0.16736100  1
  O  O39  1  0.36359200  0.86195500  0.43212100  1
  O  O40  1  0.46564900  0.63307100  0.59003700  1
  O  O41  1  0.95504900  0.75902700  0.57418900  1
  O  O42  1  0.13640800  0.36195500  0.06787900  1
  O  O43  1  0.20960850  0.07216250  0.32128800  1
  O  O44  1  0.53435100  0.63307100  0.90996300  1
  O  O45  1  0.42508150  0.89046450  0.85449100  1
  O  O46  1  0.95504900  0.24097300  0.07418900  1
  O  O47  1  0.27999100  0.07172400  0.66736100  1
  O  O48  1  0.72000900  0.92827600  0.33263900  1
  O  O49  1  0.04495100  0.75902700  0.92581100  1
  O  O50  1  0.57491850  0.10953550  0.14550900  1
  O  O51  1  0.46564900  0.36692900  0.09003700  1
  O  O52  1  0.79039150  0.92783750  0.67871200  1
  O  O53  1  0.86359200  0.63804500  0.93212100  1
  O  O54  1  0.04495100  0.24097300  0.42581100  1
  O  O55  1  0.53435100  0.36692900  0.40996300  1
  O  O56  1  0.63640800  0.13804500  0.56787900  1
  O  O57  1  0.22000900  0.57172400  0.83263900  1
  O  O58  1  0.42508150  0.10953550  0.35449100  1
  O  O59  1  0.70960850  0.42783750  0.82128800  1
  O  O60  1  0.79039150  0.07216250  0.17871200  1
  O  O61  1  0.07491850  0.39046450  0.64550900  1
  O  O62  1  0.27999100  0.92827600  0.16736100  1
  O  O63  1  0.86359200  0.36195500  0.43212100  1
  O  O64  1  0.96564900  0.13307100  0.59003700  1
  O  O65  1  0.45504900  0.25902700  0.57418900  1
  O  O66  1  0.63640800  0.86195500  0.06787900  1
  O  O67  1  0.70960850  0.57216250  0.32128800  1
  O  O68  1  0.03435100  0.13307100  0.90996300  1
  O  O69  1  0.92508150  0.39046450  0.85449100  1
  O  O70  1  0.45504900  0.74097300  0.07418900  1
  O  O71  1  0.77999100  0.57172400  0.66736100  1
