# generated using pymatgen
data_LiCuBO3
_symmetry_space_group_name_H-M   'P 1'
_cell_length_a   5.27964200
_cell_length_b   9.01362200
_cell_length_c   9.58791690
_cell_angle_alpha   90.00000000
_cell_angle_beta   92.01317598
_cell_angle_gamma   90.00000000
_symmetry_Int_Tables_number   1
_chemical_formula_structural   LiCuBO3
_chemical_formula_sum   'Li8 Cu8 B8 O24'
_cell_volume   455.99484978
_cell_formula_units_Z   8
loop_
 _symmetry_equiv_pos_site_id
 _symmetry_equiv_pos_as_xyz
  1  'x, y, z'
loop_
 _atom_site_type_symbol
 _atom_site_label
 _atom_site_symmetry_multiplicity
 _atom_site_fract_x
 _atom_site_fract_y
 _atom_site_fract_z
 _atom_site_occupancy
  Li  Li0  1  0.65975150  0.99882350  0.09301700  1
  Li  Li1  1  0.65975150  0.00117650  0.59301700  1
  Li  Li2  1  0.33571100  0.99052000  0.84347400  1
  Li  Li3  1  0.33571100  0.00948000  0.34347400  1
  Li  Li4  1  0.15975150  0.49882350  0.09301700  1
  Li  Li5  1  0.15975150  0.50117650  0.59301700  1
  Li  Li6  1  0.83571100  0.49052000  0.84347400  1
  Li  Li7  1  0.83571100  0.50948000  0.34347400  1
  Cu  Cu8  1  0.65564050  0.67515550  0.62103400  1
  Cu  Cu9  1  0.34729650  0.67185950  0.87006700  1
  Cu  Cu10  1  0.65564050  0.32484450  0.12103400  1
  Cu  Cu11  1  0.34729650  0.32814050  0.37006700  1
  Cu  Cu12  1  0.15564050  0.17515550  0.62103400  1
  Cu  Cu13  1  0.84729650  0.17185950  0.87006700  1
  Cu  Cu14  1  0.15564050  0.82484450  0.12103400  1
  Cu  Cu15  1  0.84729650  0.82814050  0.37006700  1
  B  B16  1  0.16968700  0.16911500  0.12491400  1
  B  B17  1  0.82785750  0.16881350  0.37453500  1
  B  B18  1  0.16968700  0.83088500  0.62491400  1
  B  B19  1  0.82785750  0.83118650  0.87453500  1
  B  B20  1  0.66968700  0.66911500  0.12491400  1
  B  B21  1  0.32785750  0.66881350  0.37453500  1
  B  B22  1  0.66968700  0.33088500  0.62491400  1
  B  B23  1  0.32785750  0.33118650  0.87453500  1
  O  O24  1  0.58708250  0.66660850  0.41405800  1
  O  O25  1  0.77348250  0.80795250  0.16508300  1
  O  O26  1  0.41485300  0.66615700  0.07770200  1
  O  O27  1  0.68498450  0.95546650  0.88558400  1
  O  O28  1  0.22368950  0.80500350  0.32778700  1
  O  O29  1  0.68498450  0.04453350  0.38558400  1
  O  O30  1  0.30949450  0.95677950  0.63356100  1
  O  O31  1  0.77348250  0.19204750  0.66508300  1
  O  O32  1  0.30949450  0.04322050  0.13356100  1
  O  O33  1  0.58708250  0.33339150  0.91405800  1
  O  O34  1  0.22368950  0.19499650  0.82778700  1
  O  O35  1  0.41485300  0.33384300  0.57770200  1
  O  O36  1  0.08708250  0.16660850  0.41405800  1
  O  O37  1  0.27348250  0.30795250  0.16508300  1
  O  O38  1  0.91485300  0.16615700  0.07770200  1
  O  O39  1  0.18498450  0.45546650  0.88558400  1
  O  O40  1  0.72368950  0.30500350  0.32778700  1
  O  O41  1  0.18498450  0.54453350  0.38558400  1
  O  O42  1  0.80949450  0.45677950  0.63356100  1
  O  O43  1  0.27348250  0.69204750  0.66508300  1
  O  O44  1  0.80949450  0.54322050  0.13356100  1
  O  O45  1  0.08708250  0.83339150  0.91405800  1
  O  O46  1  0.72368950  0.69499650  0.82778700  1
  O  O47  1  0.91485300  0.83384300  0.57770200  1
