# generated using pymatgen
data_La4(B2O5)3
_symmetry_space_group_name_H-M   'P 1'
_cell_length_a   12.24150600
_cell_length_b   4.53172400
_cell_length_c   19.83799627
_cell_angle_alpha   90.00000000
_cell_angle_beta   97.53176242
_cell_angle_gamma   90.00000000
_symmetry_Int_Tables_number   1
_chemical_formula_structural   La4(B2O5)3
_chemical_formula_sum   'La16 B24 O60'
_cell_volume   1091.02049305
_cell_formula_units_Z   4
loop_
 _symmetry_equiv_pos_site_id
 _symmetry_equiv_pos_as_xyz
  1  'x, y, z'
loop_
 _atom_site_type_symbol
 _atom_site_label
 _atom_site_symmetry_multiplicity
 _atom_site_fract_x
 _atom_site_fract_y
 _atom_site_fract_z
 _atom_site_occupancy
  La  La0  1  0.85932400  0.21579200  0.69578600  1
  La  La1  1  0.87437900  0.21295400  0.90540200  1
  La  La2  1  0.85932400  0.78420800  0.19578600  1
  La  La3  1  0.87437900  0.78704600  0.40540200  1
  La  La4  1  0.62562100  0.71295400  0.59459800  1
  La  La5  1  0.64067600  0.71579200  0.80421400  1
  La  La6  1  0.62562100  0.28704600  0.09459800  1
  La  La7  1  0.64067600  0.28420800  0.30421400  1
  La  La8  1  0.35932400  0.71579200  0.69578600  1
  La  La9  1  0.37437900  0.71295400  0.90540200  1
  La  La10  1  0.35932400  0.28420800  0.19578600  1
  La  La11  1  0.37437900  0.28704600  0.40540200  1
  La  La12  1  0.12562100  0.21295400  0.59459800  1
  La  La13  1  0.14067600  0.21579200  0.80421400  1
  La  La14  1  0.12562100  0.78704600  0.09459800  1
  La  La15  1  0.14067600  0.78420800  0.30421400  1
  B  B16  1  0.89869150  0.70944950  0.58825200  1
  B  B17  1  0.93736250  0.72428050  0.80541900  1
  B  B18  1  0.82814000  0.19886600  0.52661100  1
  B  B19  1  0.89869150  0.29055050  0.08825200  1
  B  B20  1  0.93736250  0.27571950  0.30541900  1
  B  B21  1  0.82814000  0.80113400  0.02661100  1
  B  B22  1  0.67186000  0.69886600  0.97338900  1
  B  B23  1  0.56263750  0.22428050  0.69458100  1
  B  B24  1  0.60130850  0.20944950  0.91174800  1
  B  B25  1  0.67186000  0.30113400  0.47338900  1
  B  B26  1  0.56263750  0.77571950  0.19458100  1
  B  B27  1  0.60130850  0.79055050  0.41174800  1
  B  B28  1  0.39869150  0.20944950  0.58825200  1
  B  B29  1  0.43736250  0.22428050  0.80541900  1
  B  B30  1  0.32814000  0.69886600  0.52661100  1
  B  B31  1  0.39869150  0.79055050  0.08825200  1
  B  B32  1  0.43736250  0.77571950  0.30541900  1
  B  B33  1  0.32814000  0.30113400  0.02661100  1
  B  B34  1  0.17186000  0.19886600  0.97338900  1
  B  B35  1  0.06263750  0.72428050  0.69458100  1
  B  B36  1  0.10130850  0.70944950  0.91174800  1
  B  B37  1  0.17186000  0.80113400  0.47338900  1
  B  B38  1  0.06263750  0.27571950  0.19458100  1
  B  B39  1  0.10130850  0.29055050  0.41174800  1
  O  O40  1  0.99301150  0.81599650  0.87611900  1
  O  O41  1  0.90997700  0.39040000  0.56619700  1
  O  O42  1  0.93795750  0.40591450  0.80343600  1
  O  O43  1  0.87153300  0.89678000  0.52660900  1
  O  O44  1  0.99301150  0.18400350  0.37611900  1
  O  O45  1  0.90997700  0.60960000  0.06619700  1
  O  O46  1  0.81729200  0.73022400  0.63553000  1
  O  O47  1  0.93795750  0.59408550  0.30343600  1
  O  O48  1  0.87153300  0.10322000  0.02660900  1
  O  O49  1  0.82804300  0.85982400  0.79772000  1
  O  O50  1  0.78904200  0.71366100  0.95313000  1
  O  O51  1  0.71095800  0.21366100  0.54687000  1
  O  O52  1  0.81729200  0.26977600  0.13553000  1
  O  O53  1  0.82804300  0.14017600  0.29772000  1
  O  O54  1  0.67195700  0.35982400  0.70228000  1
  O  O55  1  0.68270800  0.23022400  0.86447000  1
  O  O56  1  0.78904200  0.28633900  0.45313000  1
  O  O57  1  0.71095800  0.78633900  0.04687000  1
  O  O58  1  0.67195700  0.64017600  0.20228000  1
  O  O59  1  0.62846700  0.39678000  0.97339100  1
  O  O60  1  0.56204250  0.90591450  0.69656400  1
  O  O61  1  0.68270800  0.76977600  0.36447000  1
  O  O62  1  0.59002300  0.89040000  0.93380300  1
  O  O63  1  0.50698850  0.31599650  0.62388100  1
  O  O64  1  0.00000000  0.85306200  0.75000000  1
  O  O65  1  0.62846700  0.60322000  0.47339100  1
  O  O66  1  0.56204250  0.09408550  0.19656400  1
  O  O67  1  0.59002300  0.10960000  0.43380300  1
  O  O68  1  0.50698850  0.68400350  0.12388100  1
  O  O69  1  0.00000000  0.14693800  0.25000000  1
  O  O70  1  0.49301150  0.31599650  0.87611900  1
  O  O71  1  0.40997700  0.89040000  0.56619700  1
  O  O72  1  0.43795750  0.90591450  0.80343600  1
  O  O73  1  0.37153300  0.39678000  0.52660900  1
  O  O74  1  0.49301150  0.68400350  0.37611900  1
  O  O75  1  0.40997700  0.10960000  0.06619700  1
  O  O76  1  0.31729200  0.23022400  0.63553000  1
  O  O77  1  0.43795750  0.09408550  0.30343600  1
  O  O78  1  0.37153300  0.60322000  0.02660900  1
  O  O79  1  0.32804300  0.35982400  0.79772000  1
  O  O80  1  0.28904200  0.21366100  0.95313000  1
  O  O81  1  0.21095800  0.71366100  0.54687000  1
  O  O82  1  0.31729200  0.76977600  0.13553000  1
  O  O83  1  0.32804300  0.64017600  0.29772000  1
  O  O84  1  0.17195700  0.85982400  0.70228000  1
  O  O85  1  0.18270800  0.73022400  0.86447000  1
  O  O86  1  0.28904200  0.78633900  0.45313000  1
  O  O87  1  0.21095800  0.28633900  0.04687000  1
  O  O88  1  0.17195700  0.14017600  0.20228000  1
  O  O89  1  0.12846700  0.89678000  0.97339100  1
  O  O90  1  0.06204250  0.40591450  0.69656400  1
  O  O91  1  0.18270800  0.26977600  0.36447000  1
  O  O92  1  0.09002300  0.39040000  0.93380300  1
  O  O93  1  0.00698850  0.81599650  0.62388100  1
  O  O94  1  0.50000000  0.35306200  0.75000000  1
  O  O95  1  0.12846700  0.10322000  0.47339100  1
  O  O96  1  0.06204250  0.59408550  0.19656400  1
  O  O97  1  0.09002300  0.60960000  0.43380300  1
  O  O98  1  0.00698850  0.18400350  0.12388100  1
  O  O99  1  0.50000000  0.64693800  0.25000000  1
