# generated using pymatgen
data_Ga2WO6
_symmetry_space_group_name_H-M   'P 1'
_cell_length_a   14.25360800
_cell_length_b   12.67500200
_cell_length_c   5.03933211
_cell_angle_alpha   90.00000000
_cell_angle_beta   95.93857013
_cell_angle_gamma   90.00000000
_symmetry_Int_Tables_number   1
_chemical_formula_structural   Ga2WO6
_chemical_formula_sum   'Ga16 W8 O48'
_cell_volume   905.54255503
_cell_formula_units_Z   8
loop_
 _symmetry_equiv_pos_site_id
 _symmetry_equiv_pos_as_xyz
  1  'x, y, z'
loop_
 _atom_site_type_symbol
 _atom_site_label
 _atom_site_symmetry_multiplicity
 _atom_site_fract_x
 _atom_site_fract_y
 _atom_site_fract_z
 _atom_site_occupancy
  Ga  Ga0  1  0.50000000  0.34472600  0.75000000  1
  Ga  Ga1  1  0.50000000  0.80361900  0.75000000  1
  Ga  Ga2  1  0.13223900  0.92520600  0.29703200  1
  Ga  Ga3  1  0.13223900  0.07479400  0.79703200  1
  Ga  Ga4  1  0.86776100  0.92520600  0.20296800  1
  Ga  Ga5  1  0.86776100  0.07479400  0.70296800  1
  Ga  Ga6  1  0.50000000  0.19638100  0.25000000  1
  Ga  Ga7  1  0.50000000  0.65527400  0.25000000  1
  Ga  Ga8  1  0.00000000  0.84472600  0.75000000  1
  Ga  Ga9  1  0.00000000  0.30361900  0.75000000  1
  Ga  Ga10  1  0.63223900  0.42520600  0.29703200  1
  Ga  Ga11  1  0.63223900  0.57479400  0.79703200  1
  Ga  Ga12  1  0.36776100  0.42520600  0.20296800  1
  Ga  Ga13  1  0.36776100  0.57479400  0.70296800  1
  Ga  Ga14  1  0.00000000  0.69638100  0.25000000  1
  Ga  Ga15  1  0.00000000  0.15527400  0.25000000  1
  W  W16  1  0.33116100  0.17489800  0.61090800  1
  W  W17  1  0.66883900  0.17489800  0.88909200  1
  W  W18  1  0.33116100  0.82510200  0.11090800  1
  W  W19  1  0.66883900  0.82510200  0.38909200  1
  W  W20  1  0.83116100  0.67489800  0.61090800  1
  W  W21  1  0.16883900  0.67489800  0.88909200  1
  W  W22  1  0.83116100  0.32510200  0.11090800  1
  W  W23  1  0.16883900  0.32510200  0.38909200  1
  O  O24  1  0.08993050  0.05237950  0.12524700  1
  O  O25  1  0.24440750  0.19908250  0.29623300  1
  O  O26  1  0.42059000  0.31354200  0.41067500  1
  O  O27  1  0.41637550  0.10512850  0.42109900  1
  O  O28  1  0.58362450  0.10512850  0.07890100  1
  O  O29  1  0.57941000  0.31354200  0.08932500  1
  O  O30  1  0.08993050  0.94762050  0.62524700  1
  O  O31  1  0.57974700  0.22410800  0.60249000  1
  O  O32  1  0.57974700  0.77589200  0.10249000  1
  O  O33  1  0.73709850  0.07332650  0.73214300  1
  O  O34  1  0.73709850  0.92667350  0.23214300  1
  O  O35  1  0.75559250  0.19908250  0.20376700  1
  O  O36  1  0.24440750  0.80091750  0.79623300  1
  O  O37  1  0.26290150  0.07332650  0.76785700  1
  O  O38  1  0.26290150  0.92667350  0.26785700  1
  O  O39  1  0.42025300  0.22410800  0.89751000  1
  O  O40  1  0.42025300  0.77589200  0.39751000  1
  O  O41  1  0.91006950  0.05237950  0.37475300  1
  O  O42  1  0.42059000  0.68645800  0.91067500  1
  O  O43  1  0.41637550  0.89487150  0.92109900  1
  O  O44  1  0.58362450  0.89487150  0.57890100  1
  O  O45  1  0.57941000  0.68645800  0.58932500  1
  O  O46  1  0.75559250  0.80091750  0.70376700  1
  O  O47  1  0.91006950  0.94762050  0.87475300  1
  O  O48  1  0.58993050  0.55237950  0.12524700  1
  O  O49  1  0.74440750  0.69908250  0.29623300  1
  O  O50  1  0.92059000  0.81354200  0.41067500  1
  O  O51  1  0.91637550  0.60512850  0.42109900  1
  O  O52  1  0.08362450  0.60512850  0.07890100  1
  O  O53  1  0.07941000  0.81354200  0.08932500  1
  O  O54  1  0.58993050  0.44762050  0.62524700  1
  O  O55  1  0.07974700  0.72410800  0.60249000  1
  O  O56  1  0.07974700  0.27589200  0.10249000  1
  O  O57  1  0.23709850  0.57332650  0.73214300  1
  O  O58  1  0.23709850  0.42667350  0.23214300  1
  O  O59  1  0.25559250  0.69908250  0.20376700  1
  O  O60  1  0.74440750  0.30091750  0.79623300  1
  O  O61  1  0.76290150  0.57332650  0.76785700  1
  O  O62  1  0.76290150  0.42667350  0.26785700  1
  O  O63  1  0.92025300  0.72410800  0.89751000  1
  O  O64  1  0.92025300  0.27589200  0.39751000  1
  O  O65  1  0.41006950  0.55237950  0.37475300  1
  O  O66  1  0.92059000  0.18645800  0.91067500  1
  O  O67  1  0.91637550  0.39487150  0.92109900  1
  O  O68  1  0.08362450  0.39487150  0.57890100  1
  O  O69  1  0.07941000  0.18645800  0.58932500  1
  O  O70  1  0.25559250  0.30091750  0.70376700  1
  O  O71  1  0.41006950  0.44762050  0.87475300  1
