# generated using pymatgen
data_ZrCd2H12(O3F4)2
_symmetry_space_group_name_H-M   'P 1'
_cell_length_a   11.61793000
_cell_length_b   8.37922000
_cell_length_c   12.83055758
_cell_angle_alpha   90.00000000
_cell_angle_beta   111.23116107
_cell_angle_gamma   90.00000000
_symmetry_Int_Tables_number   1
_chemical_formula_structural   ZrCd2H12(O3F4)2
_chemical_formula_sum   'Zr4 Cd8 H48 O24 F32'
_cell_volume   1164.26800070
_cell_formula_units_Z   4
loop_
 _symmetry_equiv_pos_site_id
 _symmetry_equiv_pos_as_xyz
  1  'x, y, z'
loop_
 _atom_site_type_symbol
 _atom_site_label
 _atom_site_symmetry_multiplicity
 _atom_site_fract_x
 _atom_site_fract_y
 _atom_site_fract_z
 _atom_site_occupancy
  Zr  Zr0  1  0.00000000  0.76476400  0.25000000  1
  Zr  Zr1  1  0.50000000  0.73523600  0.75000000  1
  Zr  Zr2  1  0.50000000  0.26476400  0.25000000  1
  Zr  Zr3  1  0.00000000  0.23523600  0.75000000  1
  Cd  Cd4  1  0.67810250  0.61391450  0.21131200  1
  Cd  Cd5  1  0.82189750  0.11391450  0.28868800  1
  Cd  Cd6  1  0.82189750  0.88608550  0.78868800  1
  Cd  Cd7  1  0.67810250  0.38608550  0.71131200  1
  Cd  Cd8  1  0.17810250  0.11391450  0.21131200  1
  Cd  Cd9  1  0.32189750  0.61391450  0.28868800  1
  Cd  Cd10  1  0.32189750  0.38608550  0.78868800  1
  Cd  Cd11  1  0.17810250  0.88608550  0.71131200  1
  H  H12  1  0.44608900  0.90716700  0.35777900  1
  H  H13  1  0.55391100  0.90716700  0.14222100  1
  H  H14  1  0.05391100  0.59283300  0.64222100  1
  H  H15  1  0.94608900  0.59283300  0.85777900  1
  H  H16  1  0.46013600  0.80513500  0.46694800  1
  H  H17  1  0.53986400  0.80513500  0.03305200  1
  H  H18  1  0.03986400  0.69486500  0.53305200  1
  H  H19  1  0.96013600  0.69486500  0.96694800  1
  H  H20  1  0.26427050  0.83093050  0.10350800  1
  H  H21  1  0.73572950  0.83093050  0.39649200  1
  H  H22  1  0.23572950  0.66906950  0.89649200  1
  H  H23  1  0.76427050  0.66906950  0.60350800  1
  H  H24  1  0.38118300  0.73160600  0.11074200  1
  H  H25  1  0.61881700  0.73160600  0.38925800  1
  H  H26  1  0.11881700  0.76839400  0.88925800  1
  H  H27  1  0.88118300  0.76839400  0.61074200  1
  H  H28  1  0.27560450  0.09324050  0.04798200  1
  H  H29  1  0.72439550  0.09324050  0.45201800  1
  H  H30  1  0.22439550  0.40675950  0.95201800  1
  H  H31  1  0.77560450  0.40675950  0.54798200  1
  H  H32  1  0.63479350  0.53930750  0.98021800  1
  H  H33  1  0.86520650  0.03930750  0.51978200  1
  H  H34  1  0.86520650  0.96069250  0.01978200  1
  H  H35  1  0.63479350  0.46069250  0.48021800  1
  H  H36  1  0.94608900  0.40716700  0.35777900  1
  H  H37  1  0.05391100  0.40716700  0.14222100  1
  H  H38  1  0.55391100  0.09283300  0.64222100  1
  H  H39  1  0.44608900  0.09283300  0.85777900  1
  H  H40  1  0.96013600  0.30513500  0.46694800  1
  H  H41  1  0.03986400  0.30513500  0.03305200  1
  H  H42  1  0.53986400  0.19486500  0.53305200  1
  H  H43  1  0.46013600  0.19486500  0.96694800  1
  H  H44  1  0.76427050  0.33093050  0.10350800  1
  H  H45  1  0.23572950  0.33093050  0.39649200  1
  H  H46  1  0.73572950  0.16906950  0.89649200  1
  H  H47  1  0.26427050  0.16906950  0.60350800  1
  H  H48  1  0.88118300  0.23160600  0.11074200  1
  H  H49  1  0.11881700  0.23160600  0.38925800  1
  H  H50  1  0.61881700  0.26839400  0.88925800  1
  H  H51  1  0.38118300  0.26839400  0.61074200  1
  H  H52  1  0.77560450  0.59324050  0.04798200  1
  H  H53  1  0.22439550  0.59324050  0.45201800  1
  H  H54  1  0.72439550  0.90675950  0.95201800  1
  H  H55  1  0.27560450  0.90675950  0.54798200  1
  H  H56  1  0.13479350  0.03930750  0.98021800  1
  H  H57  1  0.36520650  0.53930750  0.51978200  1
  H  H58  1  0.36520650  0.46069250  0.01978200  1
  H  H59  1  0.13479350  0.96069250  0.48021800  1
  O  O60  1  0.47048000  0.80061000  0.39335000  1
  O  O61  1  0.52952000  0.80061000  0.10665000  1
  O  O62  1  0.02952000  0.69939000  0.60665000  1
  O  O63  1  0.97048000  0.69939000  0.89335000  1
  O  O64  1  0.69660700  0.72475000  0.37465700  1
  O  O65  1  0.30339300  0.72475000  0.12534300  1
  O  O66  1  0.80339300  0.77525000  0.62534300  1
  O  O67  1  0.19660700  0.77525000  0.87465700  1
  O  O68  1  0.20549200  0.02835600  0.05250500  1
  O  O69  1  0.79450800  0.02835600  0.44749500  1
  O  O70  1  0.29450800  0.47164400  0.94749500  1
  O  O71  1  0.70549200  0.47164400  0.55250500  1
  O  O72  1  0.97048000  0.30061000  0.39335000  1
  O  O73  1  0.02952000  0.30061000  0.10665000  1
  O  O74  1  0.52952000  0.19939000  0.60665000  1
  O  O75  1  0.47048000  0.19939000  0.89335000  1
  O  O76  1  0.19660700  0.22475000  0.37465700  1
  O  O77  1  0.80339300  0.22475000  0.12534300  1
  O  O78  1  0.30339300  0.27525000  0.62534300  1
  O  O79  1  0.69660700  0.27525000  0.87465700  1
  O  O80  1  0.70549200  0.52835600  0.05250500  1
  O  O81  1  0.29450800  0.52835600  0.44749500  1
  O  O82  1  0.79450800  0.97164400  0.94749500  1
  O  O83  1  0.20549200  0.97164400  0.55250500  1
  F  F84  1  0.99033400  0.96659200  0.14252300  1
  F  F85  1  0.00966600  0.96659200  0.35747700  1
  F  F86  1  0.50966600  0.53340800  0.85747700  1
  F  F87  1  0.49033400  0.53340800  0.64252300  1
  F  F88  1  0.18497050  0.85164850  0.28568000  1
  F  F89  1  0.81502950  0.85164850  0.21432000  1
  F  F90  1  0.31502950  0.64835150  0.71432000  1
  F  F91  1  0.68497050  0.64835150  0.78568000  1
  F  F92  1  0.39228450  0.06908450  0.27337600  1
  F  F93  1  0.60771550  0.06908450  0.22662400  1
  F  F94  1  0.10771550  0.43091550  0.72662400  1
  F  F95  1  0.89228450  0.43091550  0.77337600  1
  F  F96  1  0.08792600  0.68510400  0.41935000  1
  F  F97  1  0.41207400  0.18510400  0.08065000  1
  F  F98  1  0.41207400  0.81489600  0.58065000  1
  F  F99  1  0.08792600  0.31489600  0.91935000  1
  F  F100  1  0.49033400  0.46659200  0.14252300  1
  F  F101  1  0.50966600  0.46659200  0.35747700  1
  F  F102  1  0.00966600  0.03340800  0.85747700  1
  F  F103  1  0.99033400  0.03340800  0.64252300  1
  F  F104  1  0.68497050  0.35164850  0.28568000  1
  F  F105  1  0.31502950  0.35164850  0.21432000  1
  F  F106  1  0.81502950  0.14835150  0.71432000  1
  F  F107  1  0.18497050  0.14835150  0.78568000  1
  F  F108  1  0.89228450  0.56908450  0.27337600  1
  F  F109  1  0.10771550  0.56908450  0.22662400  1
  F  F110  1  0.60771550  0.93091550  0.72662400  1
  F  F111  1  0.39228450  0.93091550  0.77337600  1
  F  F112  1  0.58792600  0.18510400  0.41935000  1
  F  F113  1  0.91207400  0.68510400  0.08065000  1
  F  F114  1  0.91207400  0.31489600  0.58065000  1
  F  F115  1  0.58792600  0.81489600  0.91935000  1
