# generated using pymatgen
data_SrH2(SeO3)2
_symmetry_space_group_name_H-M   'P 1'
_cell_length_a   5.99367400
_cell_length_b   7.36203938
_cell_length_c   7.94990490
_cell_angle_alpha   97.21162103
_cell_angle_beta   104.05051372
_cell_angle_gamma   106.30466762
_symmetry_Int_Tables_number   1
_chemical_formula_structural   SrH2(SeO3)2
_chemical_formula_sum   'Sr2 H4 Se4 O12'
_cell_volume   319.46801554
_cell_formula_units_Z   2
loop_
 _symmetry_equiv_pos_site_id
 _symmetry_equiv_pos_as_xyz
  1  'x, y, z'
loop_
 _atom_site_type_symbol
 _atom_site_label
 _atom_site_symmetry_multiplicity
 _atom_site_fract_x
 _atom_site_fract_y
 _atom_site_fract_z
 _atom_site_occupancy
  Sr  Sr0  1  0.33314600  0.72071000  0.55352800  1
  Sr  Sr1  1  0.66685400  0.27929000  0.44647200  1
  H  H2  1  0.05531700  0.94677500  0.30027600  1
  H  H3  1  0.25218200  0.95943200  0.04676200  1
  H  H4  1  0.74781800  0.04056800  0.95323800  1
  H  H5  1  0.94468300  0.05322500  0.69972400  1
  Se  Se6  1  0.07572200  0.29662000  0.14727300  1
  Se  Se7  1  0.35463800  0.24752900  0.76945900  1
  Se  Se8  1  0.64536200  0.75247100  0.23054100  1
  Se  Se9  1  0.92427800  0.70338000  0.85272700  1
  O  O10  1  0.24036300  0.86377100  0.94072200  1
  O  O11  1  0.02383700  0.17588600  0.66287300  1
  O  O12  1  0.02876700  0.41133600  0.32619500  1
  O  O13  1  0.44981200  0.44585700  0.68439800  1
  O  O14  1  0.21547600  0.13343900  0.21798400  1
  O  O15  1  0.56001800  0.91346100  0.35064800  1
  O  O16  1  0.43998200  0.08653900  0.64935200  1
  O  O17  1  0.78452400  0.86656100  0.78201600  1
  O  O18  1  0.55018800  0.55414300  0.31560200  1
  O  O19  1  0.97123300  0.58866400  0.67380500  1
  O  O20  1  0.97616300  0.82411400  0.33712700  1
  O  O21  1  0.75963700  0.13622900  0.05927800  1
