# generated using pymatgen
data_Lu2P4O13
_symmetry_space_group_name_H-M   'P 1'
_cell_length_a   11.91492200
_cell_length_b   6.70821200
_cell_length_c   12.85326256
_cell_angle_alpha   90.00000000
_cell_angle_beta   106.32787325
_cell_angle_gamma   90.00000000
_symmetry_Int_Tables_number   1
_chemical_formula_structural   Lu2P4O13
_chemical_formula_sum   'Lu8 P16 O52'
_cell_volume   985.89954266
_cell_formula_units_Z   4
loop_
 _symmetry_equiv_pos_site_id
 _symmetry_equiv_pos_as_xyz
  1  'x, y, z'
loop_
 _atom_site_type_symbol
 _atom_site_label
 _atom_site_symmetry_multiplicity
 _atom_site_fract_x
 _atom_site_fract_y
 _atom_site_fract_z
 _atom_site_occupancy
  Lu  Lu0  1  0.69718550  0.00251850  0.55216300  1
  Lu  Lu1  1  0.69718550  0.99748150  0.05216300  1
  Lu  Lu2  1  0.80281450  0.50251850  0.94783700  1
  Lu  Lu3  1  0.80281450  0.49748150  0.44783700  1
  Lu  Lu4  1  0.19718550  0.50251850  0.55216300  1
  Lu  Lu5  1  0.19718550  0.49748150  0.05216300  1
  Lu  Lu6  1  0.30281450  0.00251850  0.94783700  1
  Lu  Lu7  1  0.30281450  0.99748150  0.44783700  1
  P  P8  1  0.98767550  0.15067850  0.63263900  1
  P  P9  1  0.76676500  0.00665400  0.84012400  1
  P  P10  1  0.51232450  0.65067850  0.86736100  1
  P  P11  1  0.73323500  0.50665400  0.65987600  1
  P  P12  1  0.76676500  0.99334600  0.34012400  1
  P  P13  1  0.98767550  0.84932150  0.13263900  1
  P  P14  1  0.73323500  0.49334600  0.15987600  1
  P  P15  1  0.51232450  0.34932150  0.36736100  1
  P  P16  1  0.48767550  0.65067850  0.63263900  1
  P  P17  1  0.26676500  0.50665400  0.84012400  1
  P  P18  1  0.01232450  0.15067850  0.86736100  1
  P  P19  1  0.23323500  0.00665400  0.65987600  1
  P  P20  1  0.26676500  0.49334600  0.34012400  1
  P  P21  1  0.48767550  0.34932150  0.13263900  1
  P  P22  1  0.23323500  0.99334600  0.15987600  1
  P  P23  1  0.01232450  0.84932150  0.36736100  1
  O  O24  1  0.99358600  0.32311900  0.55732700  1
  O  O25  1  0.88635200  0.00910600  0.60284400  1
  O  O26  1  0.90359900  0.00370600  0.84714600  1
  O  O27  1  0.88635200  0.99089400  0.10284400  1
  O  O28  1  0.74903650  0.82392750  0.90570100  1
  O  O29  1  0.90359900  0.99629400  0.34714600  1
  O  O30  1  0.69919700  0.00569900  0.72186000  1
  O  O31  1  0.75096350  0.32392750  0.59429900  1
  O  O32  1  0.99358600  0.67688100  0.05732700  1
  O  O33  1  0.74397500  0.18350100  0.90696300  1
  O  O34  1  0.80080300  0.50569900  0.77814000  1
  O  O35  1  0.74397500  0.81649900  0.40696300  1
  O  O36  1  0.00000000  0.24822600  0.75000000  1
  O  O37  1  0.75602500  0.68350100  0.59303700  1
  O  O38  1  0.69919700  0.99430100  0.22186000  1
  O  O39  1  0.75602500  0.31649900  0.09303700  1
  O  O40  1  0.50641400  0.82311900  0.94267300  1
  O  O41  1  0.74903650  0.17607250  0.40570100  1
  O  O42  1  0.80080300  0.49430100  0.27814000  1
  O  O43  1  0.59640100  0.50370600  0.65285400  1
  O  O44  1  0.75096350  0.67607250  0.09429900  1
  O  O45  1  0.61364800  0.50910600  0.89715600  1
  O  O46  1  0.59640100  0.49629400  0.15285400  1
  O  O47  1  0.00000000  0.75177400  0.25000000  1
  O  O48  1  0.61364800  0.49089400  0.39715600  1
  O  O49  1  0.50641400  0.17688100  0.44267300  1
  O  O50  1  0.49358600  0.82311900  0.55732700  1
  O  O51  1  0.38635200  0.50910600  0.60284400  1
  O  O52  1  0.40359900  0.50370600  0.84714600  1
  O  O53  1  0.38635200  0.49089400  0.10284400  1
  O  O54  1  0.24903650  0.32392750  0.90570100  1
  O  O55  1  0.40359900  0.49629400  0.34714600  1
  O  O56  1  0.19919700  0.50569900  0.72186000  1
  O  O57  1  0.25096350  0.82392750  0.59429900  1
  O  O58  1  0.49358600  0.17688100  0.05732700  1
  O  O59  1  0.24397500  0.68350100  0.90696300  1
  O  O60  1  0.30080300  0.00569900  0.77814000  1
  O  O61  1  0.24397500  0.31649900  0.40696300  1
  O  O62  1  0.50000000  0.74822600  0.75000000  1
  O  O63  1  0.25602500  0.18350100  0.59303700  1
  O  O64  1  0.19919700  0.49430100  0.22186000  1
  O  O65  1  0.25602500  0.81649900  0.09303700  1
  O  O66  1  0.00641400  0.32311900  0.94267300  1
  O  O67  1  0.24903650  0.67607250  0.40570100  1
  O  O68  1  0.30080300  0.99430100  0.27814000  1
  O  O69  1  0.09640100  0.00370600  0.65285400  1
  O  O70  1  0.25096350  0.17607250  0.09429900  1
  O  O71  1  0.11364800  0.00910600  0.89715600  1
  O  O72  1  0.09640100  0.99629400  0.15285400  1
  O  O73  1  0.50000000  0.25177400  0.25000000  1
  O  O74  1  0.11364800  0.99089400  0.39715600  1
  O  O75  1  0.00641400  0.67688100  0.44267300  1
