# generated using pymatgen
data_LiBiP2O7
_symmetry_space_group_name_H-M   'P 1'
_cell_length_a   4.97553200
_cell_length_b   8.80575500
_cell_length_c   7.02021450
_cell_angle_alpha   90.00000000
_cell_angle_beta   102.45036891
_cell_angle_gamma   90.00000000
_symmetry_Int_Tables_number   1
_chemical_formula_structural   LiBiP2O7
_chemical_formula_sum   'Li2 Bi2 P4 O14'
_cell_volume   300.34558113
_cell_formula_units_Z   2
loop_
 _symmetry_equiv_pos_site_id
 _symmetry_equiv_pos_as_xyz
  1  'x, y, z'
loop_
 _atom_site_type_symbol
 _atom_site_label
 _atom_site_symmetry_multiplicity
 _atom_site_fract_x
 _atom_site_fract_y
 _atom_site_fract_z
 _atom_site_occupancy
  Li  Li0  1  0.60129100  0.51696500  0.78708100  1
  Li  Li1  1  0.39870900  0.01696500  0.21291900  1
  Bi  Bi2  1  0.42719000  0.12425600  0.75073100  1
  Bi  Bi3  1  0.57281000  0.62425600  0.24926900  1
  P  P4  1  0.13764600  0.81353600  0.49017000  1
  P  P5  1  0.87150200  0.21569300  0.09181000  1
  P  P6  1  0.12849800  0.71569300  0.90819000  1
  P  P7  1  0.86235400  0.31353600  0.50983000  1
  O  O8  1  0.82504600  0.69811200  0.89882800  1
  O  O9  1  0.71141200  0.31247200  0.91606300  1
  O  O10  1  0.27949600  0.96162500  0.45619600  1
  O  O11  1  0.27532800  0.66533900  0.44093600  1
  O  O12  1  0.17259000  0.31179200  0.60035000  1
  O  O13  1  0.29149800  0.56721600  0.91197500  1
  O  O14  1  0.17357700  0.82020400  0.72475400  1
  O  O15  1  0.82642300  0.32020400  0.27524600  1
  O  O16  1  0.70850200  0.06721600  0.08802500  1
  O  O17  1  0.82741000  0.81179200  0.39965000  1
  O  O18  1  0.72467200  0.16533900  0.55906400  1
  O  O19  1  0.72050400  0.46162500  0.54380400  1
  O  O20  1  0.28858800  0.81247200  0.08393700  1
  O  O21  1  0.17495400  0.19811200  0.10117200  1
