# generated using pymatgen
data_Fe3PH6PbSO14
_symmetry_space_group_name_H-M   'P 1'
_cell_length_a   7.38567607
_cell_length_b   7.38567607
_cell_length_c   17.06784686
_cell_angle_alpha   90.00000000
_cell_angle_beta   90.00000000
_cell_angle_gamma   120.00000000
_symmetry_Int_Tables_number   1
_chemical_formula_structural   Fe3PH6PbSO14
_chemical_formula_sum   'Fe9 P3 H18 Pb3 S3 O42'
_cell_volume   806.28741566
_cell_formula_units_Z   3
loop_
 _symmetry_equiv_pos_site_id
 _symmetry_equiv_pos_as_xyz
  1  'x, y, z'
loop_
 _atom_site_type_symbol
 _atom_site_label
 _atom_site_symmetry_multiplicity
 _atom_site_fract_x
 _atom_site_fract_y
 _atom_site_fract_z
 _atom_site_occupancy
  Fe  Fe0  1  0.16972300  0.33944600  0.83793600  1
  Fe  Fe1  1  0.66055400  0.83027700  0.83793600  1
  Fe  Fe2  1  0.16972300  0.83027700  0.83793600  1
  Fe  Fe3  1  0.83638967  0.67277933  0.17126933  1
  Fe  Fe4  1  0.32722067  0.16361033  0.17126933  1
  Fe  Fe5  1  0.83638967  0.16361033  0.17126933  1
  Fe  Fe6  1  0.50305633  0.00611267  0.50460267  1
  Fe  Fe7  1  0.99388733  0.49694367  0.50460267  1
  Fe  Fe8  1  0.50305633  0.49694367  0.50460267  1
  P  P9  1  0.33333333  0.66666667  0.98106467  1
  P  P10  1  0.00000000  0.00000000  0.31439800  1
  P  P11  1  0.66666667  0.33333333  0.64773133  1
  H  H12  1  0.46813733  0.53186267  0.22580667  1
  H  H13  1  0.46813733  0.93627467  0.22580667  1
  H  H14  1  0.06372533  0.53186267  0.22580667  1
  H  H15  1  0.20221133  0.79778867  0.11160567  1
  H  H16  1  0.20221133  0.40442267  0.11160567  1
  H  H17  1  0.59557733  0.79778867  0.11160567  1
  H  H18  1  0.13480400  0.86519600  0.55914000  1
  H  H19  1  0.13480400  0.26960800  0.55914000  1
  H  H20  1  0.73039200  0.86519600  0.55914000  1
  H  H21  1  0.86887800  0.13112200  0.44493900  1
  H  H22  1  0.86887800  0.73775600  0.44493900  1
  H  H23  1  0.26224400  0.13112200  0.44493900  1
  H  H24  1  0.80147067  0.19852933  0.89247333  1
  H  H25  1  0.80147067  0.60294133  0.89247333  1
  H  H26  1  0.39705867  0.19852933  0.89247333  1
  H  H27  1  0.53554467  0.46445533  0.77827233  1
  H  H28  1  0.53554467  0.07108933  0.77827233  1
  H  H29  1  0.92891067  0.46445533  0.77827233  1
  Pb  Pb30  1  0.33333333  0.66666667  0.66502967  1
  Pb  Pb31  1  0.00000000  0.00000000  0.99836300  1
  Pb  Pb32  1  0.66666667  0.33333333  0.33169633  1
  S  S33  1  0.33333333  0.66666667  0.35942467  1
  S  S34  1  0.00000000  0.00000000  0.69275800  1
  S  S35  1  0.66666667  0.33333333  0.02609133  1
  O  O36  1  0.33333333  0.66666667  0.27279367  1
  O  O37  1  0.33333333  0.66666667  0.07129767  1
  O  O38  1  0.44361867  0.55638133  0.38880633  1
  O  O39  1  0.44361867  0.88723733  0.38880633  1
  O  O40  1  0.11276267  0.55638133  0.38880633  1
  O  O41  1  0.21882067  0.78117933  0.94860533  1
  O  O42  1  0.21882067  0.43764133  0.94860533  1
  O  O43  1  0.56235867  0.78117933  0.94860533  1
  O  O44  1  0.54037600  0.45962400  0.20487100  1
  O  O45  1  0.54037600  0.08075200  0.20487100  1
  O  O46  1  0.91924800  0.45962400  0.20487100  1
  O  O47  1  0.12842433  0.87157567  0.13171067  1
  O  O48  1  0.12842433  0.25684867  0.13171067  1
  O  O49  1  0.74315133  0.87157567  0.13171067  1
  O  O50  1  0.00000000  0.00000000  0.60612700  1
  O  O51  1  0.00000000  0.00000000  0.40463100  1
  O  O52  1  0.11028533  0.88971467  0.72213967  1
  O  O53  1  0.11028533  0.22057067  0.72213967  1
  O  O54  1  0.77942933  0.88971467  0.72213967  1
  O  O55  1  0.88548733  0.11451267  0.28193867  1
  O  O56  1  0.88548733  0.77097467  0.28193867  1
  O  O57  1  0.22902533  0.11451267  0.28193867  1
  O  O58  1  0.20704267  0.79295733  0.53820433  1
  O  O59  1  0.20704267  0.41408533  0.53820433  1
  O  O60  1  0.58591467  0.79295733  0.53820433  1
  O  O61  1  0.79509100  0.20490900  0.46504400  1
  O  O62  1  0.79509100  0.59018200  0.46504400  1
  O  O63  1  0.40981800  0.20490900  0.46504400  1
  O  O64  1  0.66666667  0.33333333  0.93946033  1
  O  O65  1  0.66666667  0.33333333  0.73796433  1
  O  O66  1  0.77695200  0.22304800  0.05547300  1
  O  O67  1  0.77695200  0.55390400  0.05547300  1
  O  O68  1  0.44609600  0.22304800  0.05547300  1
  O  O69  1  0.55215400  0.44784600  0.61527200  1
  O  O70  1  0.55215400  0.10430800  0.61527200  1
  O  O71  1  0.89569200  0.44784600  0.61527200  1
  O  O72  1  0.87370933  0.12629067  0.87153767  1
  O  O73  1  0.87370933  0.74741867  0.87153767  1
  O  O74  1  0.25258133  0.12629067  0.87153767  1
  O  O75  1  0.46175767  0.53824233  0.79837733  1
  O  O76  1  0.46175767  0.92351533  0.79837733  1
  O  O77  1  0.07648467  0.53824233  0.79837733  1
