# generated using pymatgen
data_LiCoPO4
_symmetry_space_group_name_H-M   'P 1'
_cell_length_a   9.26354294
_cell_length_b   4.80570100
_cell_length_c   7.57396849
_cell_angle_alpha   90.00000000
_cell_angle_beta   105.39013464
_cell_angle_gamma   90.00000000
_symmetry_Int_Tables_number   1
_chemical_formula_structural   LiCoPO4
_chemical_formula_sum   'Li4 Co4 P4 O16'
_cell_volume   325.08577237
_cell_formula_units_Z   4
loop_
 _symmetry_equiv_pos_site_id
 _symmetry_equiv_pos_as_xyz
  1  'x, y, z'
loop_
 _atom_site_type_symbol
 _atom_site_label
 _atom_site_symmetry_multiplicity
 _atom_site_fract_x
 _atom_site_fract_y
 _atom_site_fract_z
 _atom_site_occupancy
  Li  Li0  1  0.00000000  0.09332950  0.50000000  1
  Li  Li1  1  0.00000000  0.03216950  0.00000000  1
  Li  Li2  1  0.50000000  0.59332950  0.50000000  1
  Li  Li3  1  0.50000000  0.53216950  0.00000000  1
  Co  Co4  1  0.33512450  0.03385600  0.19544350  1
  Co  Co5  1  0.16487550  0.53385600  0.80455650  1
  Co  Co6  1  0.83512450  0.53385600  0.19544350  1
  Co  Co7  1  0.66487550  0.03385600  0.80455650  1
  P  P8  1  0.33220300  0.98162700  0.76526750  1
  P  P9  1  0.16779700  0.48162700  0.23473250  1
  P  P10  1  0.83220300  0.48162700  0.76526750  1
  P  P11  1  0.66779700  0.98162700  0.23473250  1
  O  O12  1  0.32456350  0.38703600  0.35111900  1
  O  O13  1  0.17543650  0.88703600  0.64888100  1
  O  O14  1  0.45946800  0.88046850  0.68311000  1
  O  O15  1  0.04053200  0.38046850  0.31689000  1
  O  O16  1  0.34356950  0.82901450  0.95424050  1
  O  O17  1  0.15643050  0.32901450  0.04575950  1
  O  O18  1  0.34788500  0.29931100  0.79990500  1
  O  O19  1  0.15211500  0.79931100  0.20009500  1
  O  O20  1  0.82456350  0.88703600  0.35111900  1
  O  O21  1  0.67543650  0.38703600  0.64888100  1
  O  O22  1  0.95946800  0.38046850  0.68311000  1
  O  O23  1  0.54053200  0.88046850  0.31689000  1
  O  O24  1  0.84356950  0.32901450  0.95424050  1
  O  O25  1  0.65643050  0.82901450  0.04575950  1
  O  O26  1  0.84788500  0.79931100  0.79990500  1
  O  O27  1  0.65211500  0.29931100  0.20009500  1
