# generated using pymatgen
data_Dy2Zr2O7
_symmetry_space_group_name_H-M   'P 1'
_cell_length_a   7.32189600
_cell_length_b   7.32189600
_cell_length_c   12.62676700
_cell_angle_alpha   90.00000000
_cell_angle_beta   90.00000000
_cell_angle_gamma   90.00000000
_symmetry_Int_Tables_number   1
_chemical_formula_structural   Dy2Zr2O7
_chemical_formula_sum   'Dy8 Zr8 O28'
_cell_volume   676.92301222
_cell_formula_units_Z   4
loop_
 _symmetry_equiv_pos_site_id
 _symmetry_equiv_pos_as_xyz
  1  'x, y, z'
loop_
 _atom_site_type_symbol
 _atom_site_label
 _atom_site_symmetry_multiplicity
 _atom_site_fract_x
 _atom_site_fract_y
 _atom_site_fract_z
 _atom_site_occupancy
  Dy  Dy0  1  0.63782000  0.12684500  0.13537900  1
  Dy  Dy1  1  0.62684500  0.86218000  0.88537900  1
  Dy  Dy2  1  0.87315500  0.36218000  0.36462100  1
  Dy  Dy3  1  0.86218000  0.62684500  0.11462100  1
  Dy  Dy4  1  0.13782000  0.37315500  0.61462100  1
  Dy  Dy5  1  0.12684500  0.63782000  0.86462100  1
  Dy  Dy6  1  0.37315500  0.13782000  0.38537900  1
  Dy  Dy7  1  0.36218000  0.87315500  0.63537900  1
  Zr  Zr8  1  0.60147400  0.37003900  0.59529100  1
  Zr  Zr9  1  0.62996100  0.39852600  0.90470900  1
  Zr  Zr10  1  0.87003900  0.89852600  0.34529100  1
  Zr  Zr11  1  0.89852600  0.87003900  0.65470900  1
  Zr  Zr12  1  0.10147400  0.12996100  0.15470900  1
  Zr  Zr13  1  0.12996100  0.10147400  0.84529100  1
  Zr  Zr14  1  0.37003900  0.60147400  0.40470900  1
  Zr  Zr15  1  0.39852600  0.62996100  0.09529100  1
  O  O16  1  0.56944000  0.40702000  0.41364700  1
  O  O17  1  0.58473000  0.82755600  0.07391900  1
  O  O18  1  0.59298000  0.43056000  0.08635300  1
  O  O19  1  0.65428300  0.13693300  0.95618300  1
  O  O20  1  0.67244400  0.08473000  0.32391900  1
  O  O21  1  0.63693300  0.84571700  0.70618300  1
  O  O22  1  0.65705400  0.34294600  0.75000000  1
  O  O23  1  0.84294600  0.84294600  0.50000000  1
  O  O24  1  0.86306700  0.34571700  0.54381700  1
  O  O25  1  0.82755600  0.58473000  0.92608100  1
  O  O26  1  0.84571700  0.63693300  0.29381700  1
  O  O27  1  0.90702000  0.93056000  0.16364700  1
  O  O28  1  0.91527000  0.32755600  0.17608100  1
  O  O29  1  0.93056000  0.90702000  0.83635300  1
  O  O30  1  0.06944000  0.09298000  0.33635300  1
  O  O31  1  0.08473000  0.67244400  0.67608100  1
  O  O32  1  0.09298000  0.06944000  0.66364700  1
  O  O33  1  0.15428300  0.36306700  0.79381700  1
  O  O34  1  0.17244400  0.41527000  0.42608100  1
  O  O35  1  0.13693300  0.65428300  0.04381700  1
  O  O36  1  0.15705400  0.15705400  0.00000000  1
  O  O37  1  0.34294600  0.65705400  0.25000000  1
  O  O38  1  0.36306700  0.15428300  0.20618300  1
  O  O39  1  0.32755600  0.91527000  0.82391900  1
  O  O40  1  0.34571700  0.86306700  0.45618300  1
  O  O41  1  0.40702000  0.56944000  0.58635300  1
  O  O42  1  0.41527000  0.17244400  0.57391900  1
  O  O43  1  0.43056000  0.59298000  0.91364700  1
