# generated using pymatgen
data_TaSb3O8
_symmetry_space_group_name_H-M   'P 1'
_cell_length_a   4.96108960
_cell_length_b   5.57879800
_cell_length_c   23.91264076
_cell_angle_alpha   90.04287005
_cell_angle_beta   90.00410259
_cell_angle_gamma   90.02807570
_symmetry_Int_Tables_number   1
_chemical_formula_structural   TaSb3O8
_chemical_formula_sum   'Ta4 Sb12 O32'
_cell_volume   661.82790017
_cell_formula_units_Z   4
loop_
 _symmetry_equiv_pos_site_id
 _symmetry_equiv_pos_as_xyz
  1  'x, y, z'
loop_
 _atom_site_type_symbol
 _atom_site_label
 _atom_site_symmetry_multiplicity
 _atom_site_fract_x
 _atom_site_fract_y
 _atom_site_fract_z
 _atom_site_occupancy
  Ta  Ta0  1  0.00305100  0.12932100  0.57231700  1
  Ta  Ta1  1  0.49743200  0.36542800  0.82221300  1
  Ta  Ta2  1  0.49751500  0.62964800  0.57237100  1
  Ta  Ta3  1  0.50263700  0.63452400  0.07227000  1
  Sb  Sb4  1  0.54818400  0.98222600  0.69777300  1
  Sb  Sb5  1  0.54301200  0.98174000  0.19788600  1
  Sb  Sb6  1  0.00220200  0.13427000  0.07311700  1
  Sb  Sb7  1  0.49940100  0.36617000  0.32213800  1
  Sb  Sb8  1  0.04661300  0.51698300  0.94772700  1
  Sb  Sb9  1  0.04494500  0.51467500  0.44750100  1
  Sb  Sb10  1  0.95168600  0.47988100  0.69755700  1
  Sb  Sb11  1  0.95651200  0.48388700  0.19767500  1
  Sb  Sb12  1  0.99725900  0.86585500  0.82295900  1
  Sb  Sb13  1  0.00048000  0.86613200  0.32225300  1
  Sb  Sb14  1  0.45394100  0.01695500  0.94804900  1
  Sb  Sb15  1  0.45540800  0.01490200  0.44744600  1
  O  O16  1  0.71039300  0.08105400  0.85061500  1
  O  O17  1  0.70468600  0.07807700  0.35172800  1
  O  O18  1  0.21025200  0.14390300  0.29351200  1
  O  O19  1  0.21512700  0.13743900  0.79621500  1
  O  O20  1  0.83476200  0.15493500  0.65085900  1
  O  O21  1  0.83696800  0.15616600  0.15226100  1
  O  O22  1  0.16253200  0.17847000  0.49497800  1
  O  O23  1  0.15877800  0.17966500  0.99522400  1
  O  O24  1  0.65810600  0.31988900  0.74560300  1
  O  O25  1  0.65703600  0.32092700  0.24483300  1
  O  O26  1  0.33883500  0.34213500  0.40123300  1
  O  O27  1  0.33555800  0.34386800  0.90140000  1
  O  O28  1  0.71630000  0.36265500  0.04789200  1
  O  O29  1  0.72029400  0.36829100  0.54762800  1
  O  O30  1  0.21154100  0.42353800  0.59917500  1
  O  O31  1  0.20890700  0.42143400  0.09967400  1
  O  O32  1  0.79551900  0.57757200  0.35171000  1
  O  O33  1  0.79060800  0.57888500  0.84941700  1
  O  O34  1  0.28975500  0.64410400  0.29367400  1
  O  O35  1  0.28334400  0.63697300  0.79787200  1
  O  O36  1  0.66515500  0.65485700  0.65129300  1
  O  O37  1  0.66556200  0.65626600  0.15126700  1
  O  O38  1  0.33760800  0.67844900  0.49508800  1
  O  O39  1  0.34186300  0.67859800  0.99543200  1
  O  O40  1  0.84304700  0.81944200  0.74477200  1
  O  O41  1  0.84119100  0.82054700  0.24540800  1
  O  O42  1  0.16186500  0.84399300  0.90189200  1
  O  O43  1  0.16138500  0.84217400  0.40126800  1
  O  O44  1  0.78036600  0.86803900  0.54756700  1
  O  O45  1  0.78432000  0.86260500  0.04621000  1
  O  O46  1  0.28909400  0.91887500  0.10068600  1
  O  O47  1  0.28896200  0.92357600  0.59916300  1
