# generated using pymatgen
data_AlP2H5O9
_symmetry_space_group_name_H-M   'P 1'
_cell_length_a   7.96566700
_cell_length_b   9.36576400
_cell_length_c   9.32963324
_cell_angle_alpha   90.00000000
_cell_angle_beta   110.45606200
_cell_angle_gamma   90.00000000
_symmetry_Int_Tables_number   1
_chemical_formula_structural   AlP2H5O9
_chemical_formula_sum   'Al4 P8 H20 O36'
_cell_volume   652.14163672
_cell_formula_units_Z   4
loop_
 _symmetry_equiv_pos_site_id
 _symmetry_equiv_pos_as_xyz
  1  'x, y, z'
loop_
 _atom_site_type_symbol
 _atom_site_label
 _atom_site_symmetry_multiplicity
 _atom_site_fract_x
 _atom_site_fract_y
 _atom_site_fract_z
 _atom_site_occupancy
  Al  Al0  1  0.13237600  0.28787200  0.93290800  1
  Al  Al1  1  0.86762400  0.78787200  0.56709200  1
  Al  Al2  1  0.86762400  0.71212800  0.06709200  1
  Al  Al3  1  0.13237600  0.21212800  0.43290800  1
  P  P4  1  0.87312600  0.12134900  0.63312900  1
  P  P5  1  0.12687400  0.62134900  0.86687100  1
  P  P6  1  0.12687400  0.87865100  0.36687100  1
  P  P7  1  0.87312600  0.37865100  0.13312900  1
  P  P8  1  0.37415300  0.10896600  0.76646800  1
  P  P9  1  0.62584700  0.60896600  0.73353200  1
  P  P10  1  0.62584700  0.89103400  0.23353200  1
  P  P11  1  0.37415300  0.39103400  0.26646800  1
  H  H12  1  0.13270900  0.08826000  0.13717000  1
  H  H13  1  0.86729100  0.58826000  0.36283000  1
  H  H14  1  0.86729100  0.91174000  0.86283000  1
  H  H15  1  0.13270900  0.41174000  0.63717000  1
  H  H16  1  0.25191700  0.04001000  0.04345900  1
  H  H17  1  0.74808300  0.54001000  0.45654100  1
  H  H18  1  0.74808300  0.95999000  0.95654100  1
  H  H19  1  0.25191700  0.45999000  0.54345900  1
  H  H20  1  0.57411100  0.14279800  0.57668900  1
  H  H21  1  0.42588900  0.64279800  0.92331100  1
  H  H22  1  0.42588900  0.85720200  0.42331100  1
  H  H23  1  0.57411100  0.35720200  0.07668900  1
  H  H24  1  0.22354200  0.90141800  0.72407300  1
  H  H25  1  0.77645800  0.40141800  0.77592700  1
  H  H26  1  0.77645800  0.09858200  0.27592700  1
  H  H27  1  0.22354200  0.59858200  0.22407300  1
  H  H28  1  0.62246500  0.19910200  0.92031800  1
  H  H29  1  0.37753500  0.69910200  0.57968200  1
  H  H30  1  0.37753500  0.80089800  0.07968200  1
  H  H31  1  0.62246500  0.30089800  0.42031800  1
  O  O32  1  0.15415900  0.10535300  0.03986500  1
  O  O33  1  0.84584100  0.60535300  0.46013500  1
  O  O34  1  0.84584100  0.89464700  0.96013500  1
  O  O35  1  0.15415900  0.39464700  0.53986500  1
  O  O36  1  0.97094400  0.35454000  0.02165200  1
  O  O37  1  0.02905600  0.85454000  0.47834800  1
  O  O38  1  0.02905600  0.64546000  0.97834800  1
  O  O39  1  0.97094400  0.14546000  0.52165200  1
  O  O40  1  0.93143300  0.22173100  0.76982900  1
  O  O41  1  0.06856700  0.72173100  0.73017100  1
  O  O42  1  0.06856700  0.77826900  0.23017100  1
  O  O43  1  0.93143300  0.27826900  0.26982900  1
  O  O44  1  0.28948800  0.21416800  0.84298300  1
  O  O45  1  0.71051200  0.71416800  0.65701700  1
  O  O46  1  0.71051200  0.78583200  0.15701700  1
  O  O47  1  0.28948800  0.28583200  0.34298300  1
  O  O48  1  0.33712300  0.36102900  0.09762700  1
  O  O49  1  0.66287700  0.86102900  0.40237300  1
  O  O50  1  0.66287700  0.63897100  0.90237300  1
  O  O51  1  0.33712300  0.13897100  0.59762700  1
  O  O52  1  0.12128000  0.46313800  0.81868900  1
  O  O53  1  0.87872000  0.96313800  0.68131100  1
  O  O54  1  0.87872000  0.53686200  0.18131100  1
  O  O55  1  0.12128000  0.03686200  0.31868900  1
  O  O56  1  0.66837300  0.16246900  0.53244400  1
  O  O57  1  0.33162700  0.66246900  0.96755600  1
  O  O58  1  0.33162700  0.83753100  0.46755600  1
  O  O59  1  0.66837300  0.33753100  0.03244400  1
  O  O60  1  0.33046600  0.94908400  0.79558000  1
  O  O61  1  0.66953400  0.44908400  0.70442000  1
  O  O62  1  0.66953400  0.05091600  0.20442000  1
  O  O63  1  0.33046600  0.55091600  0.29558000  1
  O  O64  1  0.58498100  0.11129800  0.85331300  1
  O  O65  1  0.41501900  0.61129800  0.64668700  1
  O  O66  1  0.41501900  0.88870200  0.14668700  1
  O  O67  1  0.58498100  0.38870200  0.35331300  1
