# generated using pymatgen
data_Li3Mn3NiO8
_symmetry_space_group_name_H-M   'P 1'
_cell_length_a   5.88639800
_cell_length_b   10.02058800
_cell_length_c   9.49562835
_cell_angle_alpha   90.00000000
_cell_angle_beta   90.63073146
_cell_angle_gamma   90.00000000
_symmetry_Int_Tables_number   1
_chemical_formula_structural   Li3Mn3NiO8
_chemical_formula_sum   'Li12 Mn12 Ni4 O32'
_cell_volume   560.06730741
_cell_formula_units_Z   4
loop_
 _symmetry_equiv_pos_site_id
 _symmetry_equiv_pos_as_xyz
  1  'x, y, z'
loop_
 _atom_site_type_symbol
 _atom_site_label
 _atom_site_symmetry_multiplicity
 _atom_site_fract_x
 _atom_site_fract_y
 _atom_site_fract_z
 _atom_site_occupancy
  Li  Li0  1  0.50519250  0.32666050  0.44384100  1
  Li  Li1  1  0.73997450  0.08913250  0.44373300  1
  Li  Li2  1  0.26185800  0.08602900  0.44397500  1
  Li  Li3  1  0.73997450  0.91086750  0.94373300  1
  Li  Li4  1  0.26185800  0.91397100  0.94397500  1
  Li  Li5  1  0.50519250  0.67333950  0.94384100  1
  Li  Li6  1  0.00519250  0.82666050  0.44384100  1
  Li  Li7  1  0.23997450  0.58913250  0.44373300  1
  Li  Li8  1  0.76185800  0.58602900  0.44397500  1
  Li  Li9  1  0.23997450  0.41086750  0.94373300  1
  Li  Li10  1  0.76185800  0.41397100  0.94397500  1
  Li  Li11  1  0.00519250  0.17333950  0.94384100  1
  Mn  Mn12  1  0.49977900  0.33284500  0.71375800  1
  Mn  Mn13  1  0.74881450  0.08379950  0.71457600  1
  Mn  Mn14  1  0.25186250  0.08383550  0.71462900  1
  Mn  Mn15  1  0.74881450  0.91620050  0.21457600  1
  Mn  Mn16  1  0.25186250  0.91616450  0.21462900  1
  Mn  Mn17  1  0.49977900  0.66715500  0.21375800  1
  Mn  Mn18  1  0.99977900  0.83284500  0.71375800  1
  Mn  Mn19  1  0.24881450  0.58379950  0.71457600  1
  Mn  Mn20  1  0.75186250  0.58383550  0.71462900  1
  Mn  Mn21  1  0.24881450  0.41620050  0.21457600  1
  Mn  Mn22  1  0.75186250  0.41616450  0.21462900  1
  Mn  Mn23  1  0.99977900  0.16715500  0.21375800  1
  Ni  Ni24  1  0.49694700  0.16743100  0.99302800  1
  Ni  Ni25  1  0.49694700  0.83256900  0.49302800  1
  Ni  Ni26  1  0.99694700  0.66743100  0.99302800  1
  Ni  Ni27  1  0.99694700  0.33256900  0.49302800  1
  O  O28  1  0.49429950  0.34344150  0.10341400  1
  O  O29  1  0.72677350  0.24319850  0.83609600  1
  O  O30  1  0.76306200  0.07929300  0.10176300  1
  O  O31  1  0.52303600  0.17451600  0.59419900  1
  O  O32  1  0.27796300  0.24356700  0.83324100  1
  O  O33  1  0.50386400  0.01551300  0.83562800  1
  O  O34  1  0.76306200  0.92070700  0.60176300  1
  O  O35  1  0.22990400  0.07942100  0.10031200  1
  O  O36  1  0.50386400  0.98448700  0.33562800  1
  O  O37  1  0.72677350  0.75680150  0.33609600  1
  O  O38  1  0.97696250  0.00749550  0.32915200  1
  O  O39  1  0.52303600  0.82548400  0.09419900  1
  O  O40  1  0.97696250  0.99250450  0.82915200  1
  O  O41  1  0.22990400  0.92057900  0.60031200  1
  O  O42  1  0.27796300  0.75643300  0.33324100  1
  O  O43  1  0.49429950  0.65655850  0.60341400  1
  O  O44  1  0.99429950  0.84344150  0.10341400  1
  O  O45  1  0.22677350  0.74319850  0.83609600  1
  O  O46  1  0.26306200  0.57929300  0.10176300  1
  O  O47  1  0.02303600  0.67451600  0.59419900  1
  O  O48  1  0.77796300  0.74356700  0.83324100  1
  O  O49  1  0.00386400  0.51551300  0.83562800  1
  O  O50  1  0.26306200  0.42070700  0.60176300  1
  O  O51  1  0.72990400  0.57942100  0.10031200  1
  O  O52  1  0.00386400  0.48448700  0.33562800  1
  O  O53  1  0.22677350  0.25680150  0.33609600  1
  O  O54  1  0.47696250  0.50749550  0.32915200  1
  O  O55  1  0.02303600  0.32548400  0.09419900  1
  O  O56  1  0.47696250  0.49250450  0.82915200  1
  O  O57  1  0.72990400  0.42057900  0.60031200  1
  O  O58  1  0.77796300  0.25643300  0.33324100  1
  O  O59  1  0.99429950  0.15655850  0.60341400  1
