# generated using pymatgen
data_Li3Ti2(PO4)3
_symmetry_space_group_name_H-M   'P 1'
_cell_length_a   14.98933200
_cell_length_b   8.85559400
_cell_length_c   8.58302844
_cell_angle_alpha   90.00000000
_cell_angle_beta   122.45049067
_cell_angle_gamma   90.00000000
_symmetry_Int_Tables_number   1
_chemical_formula_structural   Li3Ti2(PO4)3
_chemical_formula_sum   'Li12 Ti8 P12 O48'
_cell_volume   961.40985122
_cell_formula_units_Z   4
loop_
 _symmetry_equiv_pos_site_id
 _symmetry_equiv_pos_as_xyz
  1  'x, y, z'
loop_
 _atom_site_type_symbol
 _atom_site_label
 _atom_site_symmetry_multiplicity
 _atom_site_fract_x
 _atom_site_fract_y
 _atom_site_fract_z
 _atom_site_occupancy
  Li  Li0  1  0.31399550  0.12890150  0.20830600  1
  Li  Li1  1  0.50000000  0.63212700  0.75000000  1
  Li  Li2  1  0.68600450  0.12890150  0.29169400  1
  Li  Li3  1  0.31399550  0.87109850  0.70830600  1
  Li  Li4  1  0.50000000  0.36787300  0.25000000  1
  Li  Li5  1  0.68600450  0.87109850  0.79169400  1
  Li  Li6  1  0.81399550  0.62890150  0.20830600  1
  Li  Li7  1  0.00000000  0.13212700  0.75000000  1
  Li  Li8  1  0.18600450  0.62890150  0.29169400  1
  Li  Li9  1  0.81399550  0.37109850  0.70830600  1
  Li  Li10  1  0.00000000  0.86787300  0.25000000  1
  Li  Li11  1  0.18600450  0.37109850  0.79169400  1
  Ti  Ti12  1  0.39452150  0.74790450  0.35918300  1
  Ti  Ti13  1  0.60547850  0.74790450  0.14081700  1
  Ti  Ti14  1  0.39452150  0.25209550  0.85918300  1
  Ti  Ti15  1  0.60547850  0.25209550  0.64081700  1
  Ti  Ti16  1  0.89452150  0.24790450  0.35918300  1
  Ti  Ti17  1  0.10547850  0.24790450  0.14081700  1
  Ti  Ti18  1  0.89452150  0.75209550  0.85918300  1
  Ti  Ti19  1  0.10547850  0.75209550  0.64081700  1
  P  P20  1  0.85979000  0.88717900  0.45415700  1
  P  P21  1  0.50000000  0.94944700  0.75000000  1
  P  P22  1  0.85979000  0.11282100  0.95415700  1
  P  P23  1  0.14021000  0.88717900  0.04584300  1
  P  P24  1  0.50000000  0.05055300  0.25000000  1
  P  P25  1  0.14021000  0.11282100  0.54584300  1
  P  P26  1  0.35979000  0.38717900  0.45415700  1
  P  P27  1  0.00000000  0.44944700  0.75000000  1
  P  P28  1  0.35979000  0.61282100  0.95415700  1
  P  P29  1  0.64021000  0.38717900  0.04584300  1
  P  P30  1  0.00000000  0.55055300  0.25000000  1
  P  P31  1  0.64021000  0.61282100  0.54584300  1
  O  O32  1  0.83641650  0.05909250  0.42299500  1
  O  O33  1  0.61567750  0.35323950  0.84991200  1
  O  O34  1  0.56276750  0.04187950  0.68868800  1
  O  O35  1  0.76413050  0.79798250  0.30159200  1
  O  O36  1  0.45555800  0.33917500  0.44291800  1
  O  O37  1  0.58628400  0.84206700  0.90341100  1
  O  O38  1  0.41371600  0.84206700  0.59658900  1
  O  O39  1  0.54444200  0.33917500  0.05708200  1
  O  O40  1  0.83641650  0.94090750  0.92299500  1
  O  O41  1  0.23586950  0.79798250  0.19840800  1
  O  O42  1  0.43723250  0.04187950  0.81131200  1
  O  O43  1  0.38432250  0.35323950  0.65008800  1
  O  O44  1  0.61567750  0.64676050  0.34991200  1
  O  O45  1  0.56276750  0.95812050  0.18868800  1
  O  O46  1  0.76413050  0.20201750  0.80159200  1
  O  O47  1  0.16358350  0.05909250  0.07700500  1
  O  O48  1  0.45555800  0.66082500  0.94291800  1
  O  O49  1  0.58628400  0.15793300  0.40341100  1
  O  O50  1  0.41371600  0.15793300  0.09658900  1
  O  O51  1  0.54444200  0.66082500  0.55708200  1
  O  O52  1  0.23586950  0.20201750  0.69840800  1
  O  O53  1  0.43723250  0.95812050  0.31131200  1
  O  O54  1  0.38432250  0.64676050  0.15008800  1
  O  O55  1  0.16358350  0.94090750  0.57700500  1
  O  O56  1  0.33641650  0.55909250  0.42299500  1
  O  O57  1  0.11567750  0.85323950  0.84991200  1
  O  O58  1  0.06276750  0.54187950  0.68868800  1
  O  O59  1  0.26413050  0.29798250  0.30159200  1
  O  O60  1  0.95555800  0.83917500  0.44291800  1
  O  O61  1  0.08628400  0.34206700  0.90341100  1
  O  O62  1  0.91371600  0.34206700  0.59658900  1
  O  O63  1  0.04444200  0.83917500  0.05708200  1
  O  O64  1  0.33641650  0.44090750  0.92299500  1
  O  O65  1  0.73586950  0.29798250  0.19840800  1
  O  O66  1  0.93723250  0.54187950  0.81131200  1
  O  O67  1  0.88432250  0.85323950  0.65008800  1
  O  O68  1  0.11567750  0.14676050  0.34991200  1
  O  O69  1  0.06276750  0.45812050  0.18868800  1
  O  O70  1  0.26413050  0.70201750  0.80159200  1
  O  O71  1  0.66358350  0.55909250  0.07700500  1
  O  O72  1  0.95555800  0.16082500  0.94291800  1
  O  O73  1  0.08628400  0.65793300  0.40341100  1
  O  O74  1  0.91371600  0.65793300  0.09658900  1
  O  O75  1  0.04444200  0.16082500  0.55708200  1
  O  O76  1  0.73586950  0.70201750  0.69840800  1
  O  O77  1  0.93723250  0.45812050  0.31131200  1
  O  O78  1  0.88432250  0.14676050  0.15008800  1
  O  O79  1  0.66358350  0.44090750  0.57700500  1
