# generated using pymatgen
data_LiCr10O15
_symmetry_space_group_name_H-M   'P 1'
_cell_length_a   10.38491600
_cell_length_b   11.58703600
_cell_length_c   9.44580200
_cell_angle_alpha   90.00000000
_cell_angle_beta   90.00000000
_cell_angle_gamma   90.00000000
_symmetry_Int_Tables_number   1
_chemical_formula_structural   LiCr10O15
_chemical_formula_sum   'Li4 Cr40 O60'
_cell_volume   1136.61709094
_cell_formula_units_Z   4
loop_
 _symmetry_equiv_pos_site_id
 _symmetry_equiv_pos_as_xyz
  1  'x, y, z'
loop_
 _atom_site_type_symbol
 _atom_site_label
 _atom_site_symmetry_multiplicity
 _atom_site_fract_x
 _atom_site_fract_y
 _atom_site_fract_z
 _atom_site_occupancy
  Li  Li0  1  0.00000000  0.00000000  0.00000000  1
  Li  Li1  1  0.50000000  0.00000000  0.50000000  1
  Li  Li2  1  0.50000000  0.50000000  0.00000000  1
  Li  Li3  1  0.00000000  0.50000000  0.50000000  1
  Cr  Cr4  1  0.18794100  0.00000000  0.63324800  1
  Cr  Cr5  1  0.31205900  0.00000000  0.13324800  1
  Cr  Cr6  1  0.33909400  0.75848800  0.38715200  1
  Cr  Cr7  1  0.33909400  0.74151200  0.11284800  1
  Cr  Cr8  1  0.33909400  0.25848800  0.11284800  1
  Cr  Cr9  1  0.33909400  0.24151200  0.38715200  1
  Cr  Cr10  1  0.41729750  0.87340150  0.85254800  1
  Cr  Cr11  1  0.41729750  0.62659850  0.64745200  1
  Cr  Cr12  1  0.41729750  0.37340150  0.64745200  1
  Cr  Cr13  1  0.41729750  0.12659850  0.85254800  1
  Cr  Cr14  1  0.58270250  0.12659850  0.14745200  1
  Cr  Cr15  1  0.58270250  0.62659850  0.35254800  1
  Cr  Cr16  1  0.58270250  0.37340150  0.35254800  1
  Cr  Cr17  1  0.58270250  0.87340150  0.14745200  1
  Cr  Cr18  1  0.66090600  0.24151200  0.61284800  1
  Cr  Cr19  1  0.66090600  0.74151200  0.88715200  1
  Cr  Cr20  1  0.66090600  0.25848800  0.88715200  1
  Cr  Cr21  1  0.66090600  0.75848800  0.61284800  1
  Cr  Cr22  1  0.68794100  0.00000000  0.86675200  1
  Cr  Cr23  1  0.81205900  0.00000000  0.36675200  1
  Cr  Cr24  1  0.68794100  0.50000000  0.63324800  1
  Cr  Cr25  1  0.81205900  0.50000000  0.13324800  1
  Cr  Cr26  1  0.83909400  0.25848800  0.38715200  1
  Cr  Cr27  1  0.83909400  0.24151200  0.11284800  1
  Cr  Cr28  1  0.83909400  0.75848800  0.11284800  1
  Cr  Cr29  1  0.83909400  0.74151200  0.38715200  1
  Cr  Cr30  1  0.91729750  0.37340150  0.85254800  1
  Cr  Cr31  1  0.91729750  0.12659850  0.64745200  1
  Cr  Cr32  1  0.91729750  0.87340150  0.64745200  1
  Cr  Cr33  1  0.91729750  0.62659850  0.85254800  1
  Cr  Cr34  1  0.08270250  0.62659850  0.14745200  1
  Cr  Cr35  1  0.08270250  0.12659850  0.35254800  1
  Cr  Cr36  1  0.08270250  0.87340150  0.35254800  1
  Cr  Cr37  1  0.08270250  0.37340150  0.14745200  1
  Cr  Cr38  1  0.16090600  0.74151200  0.61284800  1
  Cr  Cr39  1  0.16090600  0.24151200  0.88715200  1
  Cr  Cr40  1  0.16090600  0.75848800  0.88715200  1
  Cr  Cr41  1  0.16090600  0.25848800  0.61284800  1
  Cr  Cr42  1  0.18794100  0.50000000  0.86675200  1
  Cr  Cr43  1  0.31205900  0.50000000  0.36675200  1
  O  O44  1  0.13872800  0.00000000  0.22927300  1
  O  O45  1  0.23086550  0.86976450  0.49246600  1
  O  O46  1  0.23086550  0.13023550  0.49246600  1
  O  O47  1  0.26913450  0.13023550  0.99246600  1
  O  O48  1  0.26913450  0.86976450  0.99246600  1
  O  O49  1  0.31638900  0.25000000  0.75000000  1
  O  O50  1  0.31638900  0.75000000  0.75000000  1
  O  O51  1  0.36127200  0.00000000  0.72927300  1
  O  O52  1  0.40699400  0.63168900  0.26124300  1
  O  O53  1  0.40699400  0.86831100  0.23875700  1
  O  O54  1  0.40699400  0.36831100  0.26124300  1
  O  O55  1  0.40699400  0.13168900  0.23875700  1
  O  O56  1  0.50000000  0.24176100  0.00000000  1
  O  O57  1  0.50000000  0.00000000  0.00000000  1
  O  O58  1  0.50000000  0.75823900  0.00000000  1
  O  O59  1  0.00000000  0.00000000  0.50000000  1
  O  O60  1  0.50000000  0.25823900  0.50000000  1
  O  O61  1  0.50000000  0.74176100  0.50000000  1
  O  O62  1  0.59300600  0.36831100  0.73875700  1
  O  O63  1  0.59300600  0.86831100  0.76124300  1
  O  O64  1  0.59300600  0.63168900  0.73875700  1
  O  O65  1  0.59300600  0.13168900  0.76124300  1
  O  O66  1  0.63872800  0.00000000  0.27072700  1
  O  O67  1  0.68361100  0.75000000  0.25000000  1
  O  O68  1  0.68361100  0.25000000  0.25000000  1
  O  O69  1  0.73086550  0.86976450  0.00753400  1
  O  O70  1  0.73086550  0.13023550  0.00753400  1
  O  O71  1  0.76913450  0.13023550  0.50753400  1
  O  O72  1  0.76913450  0.86976450  0.50753400  1
  O  O73  1  0.86127200  0.00000000  0.77072700  1
  O  O74  1  0.63872800  0.50000000  0.22927300  1
  O  O75  1  0.73086550  0.36976450  0.49246600  1
  O  O76  1  0.73086550  0.63023550  0.49246600  1
  O  O77  1  0.76913450  0.63023550  0.99246600  1
  O  O78  1  0.76913450  0.36976450  0.99246600  1
  O  O79  1  0.81638900  0.75000000  0.75000000  1
  O  O80  1  0.81638900  0.25000000  0.75000000  1
  O  O81  1  0.86127200  0.50000000  0.72927300  1
  O  O82  1  0.90699400  0.13168900  0.26124300  1
  O  O83  1  0.90699400  0.36831100  0.23875700  1
  O  O84  1  0.90699400  0.86831100  0.26124300  1
  O  O85  1  0.90699400  0.63168900  0.23875700  1
  O  O86  1  0.00000000  0.74176100  0.00000000  1
  O  O87  1  0.00000000  0.50000000  0.00000000  1
  O  O88  1  0.00000000  0.25823900  0.00000000  1
  O  O89  1  0.50000000  0.50000000  0.50000000  1
  O  O90  1  0.00000000  0.75823900  0.50000000  1
  O  O91  1  0.00000000  0.24176100  0.50000000  1
  O  O92  1  0.09300600  0.86831100  0.73875700  1
  O  O93  1  0.09300600  0.36831100  0.76124300  1
  O  O94  1  0.09300600  0.13168900  0.73875700  1
  O  O95  1  0.09300600  0.63168900  0.76124300  1
  O  O96  1  0.13872800  0.50000000  0.27072700  1
  O  O97  1  0.18361100  0.25000000  0.25000000  1
  O  O98  1  0.18361100  0.75000000  0.25000000  1
  O  O99  1  0.23086550  0.36976450  0.00753400  1
  O  O100  1  0.23086550  0.63023550  0.00753400  1
  O  O101  1  0.26913450  0.63023550  0.50753400  1
  O  O102  1  0.26913450  0.36976450  0.50753400  1
  O  O103  1  0.36127200  0.50000000  0.77072700  1
