# generated using pymatgen
data_Ba2Na2O3
_symmetry_space_group_name_H-M   'P 1'
_cell_length_a   7.18098200
_cell_length_b   7.18098200
_cell_length_c   11.10306500
_cell_angle_alpha   90.00000000
_cell_angle_beta   90.00000000
_cell_angle_gamma   90.00000000
_symmetry_Int_Tables_number   1
_chemical_formula_structural   Ba2Na2O3
_chemical_formula_sum   'Ba8 Na8 O12'
_cell_volume   572.54622891
_cell_formula_units_Z   4
loop_
 _symmetry_equiv_pos_site_id
 _symmetry_equiv_pos_as_xyz
  1  'x, y, z'
loop_
 _atom_site_type_symbol
 _atom_site_label
 _atom_site_symmetry_multiplicity
 _atom_site_fract_x
 _atom_site_fract_y
 _atom_site_fract_z
 _atom_site_occupancy
  Ba  Ba0  1  0.98451600  0.75239300  0.35616800  1
  Ba  Ba1  1  0.24760700  0.01548400  0.14383200  1
  Ba  Ba2  1  0.25239300  0.51548400  0.60616800  1
  Ba  Ba3  1  0.51548400  0.25239300  0.39383200  1
  Ba  Ba4  1  0.48451600  0.74760700  0.89383200  1
  Ba  Ba5  1  0.74760700  0.48451600  0.10616800  1
  Ba  Ba6  1  0.75239300  0.98451600  0.64383200  1
  Ba  Ba7  1  0.01548400  0.24760700  0.85616800  1
  Na  Na8  1  0.96741900  0.75396300  0.89311600  1
  Na  Na9  1  0.24603700  0.03258100  0.60688400  1
  Na  Na10  1  0.25396300  0.53258100  0.14311600  1
  Na  Na11  1  0.53258100  0.25396300  0.85688400  1
  Na  Na12  1  0.46741900  0.74603700  0.35688400  1
  Na  Na13  1  0.74603700  0.46741900  0.64311600  1
  Na  Na14  1  0.75396300  0.96741900  0.10688400  1
  Na  Na15  1  0.03258100  0.24603700  0.39311600  1
  O  O16  1  0.99748300  0.25461600  0.61793900  1
  O  O17  1  0.29816300  0.29816300  0.00000000  1
  O  O18  1  0.24538400  0.49748300  0.36793900  1
  O  O19  1  0.25461600  0.99748300  0.38206100  1
  O  O20  1  0.20183700  0.79816300  0.75000000  1
  O  O21  1  0.50251700  0.75461600  0.13206100  1
  O  O22  1  0.49748300  0.24538400  0.63206100  1
  O  O23  1  0.79816300  0.20183700  0.25000000  1
  O  O24  1  0.74538400  0.00251700  0.88206100  1
  O  O25  1  0.75461600  0.50251700  0.86793900  1
  O  O26  1  0.70183700  0.70183700  0.50000000  1
  O  O27  1  0.00251700  0.74538400  0.11793900  1
