# generated using pymatgen
data_Sb2(SO4)3
_symmetry_space_group_name_H-M   'P 1'
_cell_length_a   9.30335365
_cell_length_b   9.30335365
_cell_length_c   22.80643622
_cell_angle_alpha   90.00000000
_cell_angle_beta   90.00000000
_cell_angle_gamma   120.00000000
_symmetry_Int_Tables_number   1
_chemical_formula_structural   Sb2(SO4)3
_chemical_formula_sum   'Sb12 S18 O72'
_cell_volume   1709.49218371
_cell_formula_units_Z   6
loop_
 _symmetry_equiv_pos_site_id
 _symmetry_equiv_pos_as_xyz
  1  'x, y, z'
loop_
 _atom_site_type_symbol
 _atom_site_label
 _atom_site_symmetry_multiplicity
 _atom_site_fract_x
 _atom_site_fract_y
 _atom_site_fract_z
 _atom_site_occupancy
  Sb  Sb0  1  0.00000000  0.00000000  0.13870900  1
  Sb  Sb1  1  0.33333333  0.66666667  0.02795767  1
  Sb  Sb2  1  0.66666667  0.33333333  0.19462433  1
  Sb  Sb3  1  0.33333333  0.66666667  0.30537567  1
  Sb  Sb4  1  0.66666667  0.33333333  0.47204233  1
  Sb  Sb5  1  0.00000000  0.00000000  0.36129100  1
  Sb  Sb6  1  0.33333333  0.66666667  0.52795767  1
  Sb  Sb7  1  0.00000000  0.00000000  0.63870900  1
  Sb  Sb8  1  0.33333333  0.66666667  0.80537567  1
  Sb  Sb9  1  0.66666667  0.33333333  0.69462433  1
  Sb  Sb10  1  0.00000000  0.00000000  0.86129100  1
  Sb  Sb11  1  0.66666667  0.33333333  0.97204233  1
  S  S12  1  0.37138967  0.03805633  0.08333333  1
  S  S13  1  0.70472300  1.00000000  0.25000000  1
  S  S14  1  0.00000000  0.70472300  0.25000000  1
  S  S15  1  0.66666667  0.62861033  0.08333333  1
  S  S16  1  0.96194367  0.33333333  0.08333333  1
  S  S17  1  0.29527700  0.29527700  0.25000000  1
  S  S18  1  0.03805633  0.37138967  0.41666667  1
  S  S19  1  0.37138967  0.33333333  0.58333333  1
  S  S20  1  0.66666667  0.03805633  0.58333333  1
  S  S21  1  0.33333333  0.96194367  0.41666667  1
  S  S22  1  0.62861033  0.66666667  0.41666667  1
  S  S23  1  0.96194367  0.62861033  0.58333333  1
  S  S24  1  0.70472300  0.70472300  0.75000000  1
  S  S25  1  0.03805633  0.66666667  0.91666667  1
  S  S26  1  0.33333333  0.37138967  0.91666667  1
  S  S27  1  0.00000000  0.29527700  0.75000000  1
  S  S28  1  0.29527700  0.00000000  0.75000000  1
  S  S29  1  0.62861033  0.96194367  0.91666667  1
  O  O30  1  0.35343533  0.86878167  0.08705167  1
  O  O31  1  0.15132033  0.68676867  0.24628167  1
  O  O32  1  0.87071267  0.32847133  0.13714233  1
  O  O33  1  0.87557467  0.33819533  0.02952433  1
  O  O34  1  0.20211500  0.02010200  0.07961500  1
  O  O35  1  0.68676867  0.15132033  0.25371833  1
  O  O36  1  0.53544833  0.84867967  0.24628167  1
  O  O37  1  0.20404600  0.20890800  0.30380900  1
  O  O38  1  0.99513800  0.79109200  0.19619100  1
  O  O39  1  0.20890800  0.20404600  0.19619100  1
  O  O40  1  0.00486200  0.79595400  0.30380900  1
  O  O41  1  0.84867967  0.53544833  0.25371833  1
  O  O42  1  0.81798700  0.79788500  0.07961500  1
  O  O43  1  0.45775867  0.12928733  0.13714233  1
  O  O44  1  0.66180467  0.53737933  0.02952433  1
  O  O45  1  0.46262067  0.12442533  0.02952433  1
  O  O46  1  0.67152867  0.54224133  0.13714233  1
  O  O47  1  0.13121833  0.48465367  0.08705167  1
  O  O48  1  0.97989800  0.18201300  0.07961500  1
  O  O49  1  0.46455167  0.31323133  0.25371833  1
  O  O50  1  0.79595400  0.00486200  0.19619100  1
  O  O51  1  0.79109200  0.99513800  0.30380900  1
  O  O52  1  0.51534633  0.64656467  0.08705167  1
  O  O53  1  0.31323133  0.46455167  0.24628167  1
  O  O54  1  0.02010200  0.20211500  0.42038500  1
  O  O55  1  0.81798700  0.02010200  0.57961500  1
  O  O56  1  0.53737933  0.66180467  0.47047567  1
  O  O57  1  0.54224133  0.67152867  0.36285767  1
  O  O58  1  0.86878167  0.35343533  0.41294833  1
  O  O59  1  0.35343533  0.48465367  0.58705167  1
  O  O60  1  0.20211500  0.18201300  0.57961500  1
  O  O61  1  0.87071267  0.54224133  0.63714233  1
  O  O62  1  0.66180467  0.12442533  0.52952433  1
  O  O63  1  0.87557467  0.53737933  0.52952433  1
  O  O64  1  0.67152867  0.12928733  0.63714233  1
  O  O65  1  0.51534633  0.86878167  0.58705167  1
  O  O66  1  0.48465367  0.13121833  0.41294833  1
  O  O67  1  0.12442533  0.46262067  0.47047567  1
  O  O68  1  0.32847133  0.87071267  0.36285767  1
  O  O69  1  0.12928733  0.45775867  0.36285767  1
  O  O70  1  0.33819533  0.87557467  0.47047567  1
  O  O71  1  0.79788500  0.81798700  0.42038500  1
  O  O72  1  0.64656467  0.51534633  0.41294833  1
  O  O73  1  0.13121833  0.64656467  0.58705167  1
  O  O74  1  0.46262067  0.33819533  0.52952433  1
  O  O75  1  0.45775867  0.32847133  0.63714233  1
  O  O76  1  0.18201300  0.97989800  0.42038500  1
  O  O77  1  0.97989800  0.79788500  0.57961500  1
  O  O78  1  0.68676867  0.53544833  0.75371833  1
  O  O79  1  0.48465367  0.35343533  0.91294833  1
  O  O80  1  0.20404600  0.99513800  0.80380900  1
  O  O81  1  0.20890800  0.00486200  0.69619100  1
  O  O82  1  0.53544833  0.68676867  0.74628167  1
  O  O83  1  0.02010200  0.81798700  0.92038500  1
  O  O84  1  0.86878167  0.51534633  0.91294833  1
  O  O85  1  0.53737933  0.87557467  0.97047567  1
  O  O86  1  0.32847133  0.45775867  0.86285767  1
  O  O87  1  0.54224133  0.87071267  0.86285767  1
  O  O88  1  0.33819533  0.46262067  0.97047567  1
  O  O89  1  0.18201300  0.20211500  0.92038500  1
  O  O90  1  0.15132033  0.46455167  0.74628167  1
  O  O91  1  0.79109200  0.79595400  0.80380900  1
  O  O92  1  0.99513800  0.20404600  0.69619100  1
  O  O93  1  0.79595400  0.79109200  0.69619100  1
  O  O94  1  0.00486200  0.20890800  0.80380900  1
  O  O95  1  0.46455167  0.15132033  0.75371833  1
  O  O96  1  0.31323133  0.84867967  0.74628167  1
  O  O97  1  0.79788500  0.97989800  0.92038500  1
  O  O98  1  0.12928733  0.67152867  0.86285767  1
  O  O99  1  0.12442533  0.66180467  0.97047567  1
  O  O100  1  0.84867967  0.31323133  0.75371833  1
  O  O101  1  0.64656467  0.13121833  0.91294833  1
