# generated using pymatgen
data_Sn(PO3)2
_symmetry_space_group_name_H-M   'P 1'
_cell_length_a   13.32270600
_cell_length_b   9.14360000
_cell_length_c   11.34132251
_cell_angle_alpha   90.00000000
_cell_angle_beta   122.05586960
_cell_angle_gamma   90.00000000
_symmetry_Int_Tables_number   1
_chemical_formula_structural   Sn(PO3)2
_chemical_formula_sum   'Sn8 P16 O48'
_cell_volume   1170.92461965
_cell_formula_units_Z   8
loop_
 _symmetry_equiv_pos_site_id
 _symmetry_equiv_pos_as_xyz
  1  'x, y, z'
loop_
 _atom_site_type_symbol
 _atom_site_label
 _atom_site_symmetry_multiplicity
 _atom_site_fract_x
 _atom_site_fract_y
 _atom_site_fract_z
 _atom_site_occupancy
  Sn  Sn0  1  0.00000000  0.98865900  0.75000000  1
  Sn  Sn1  1  0.25000000  0.25000000  0.50000000  1
  Sn  Sn2  1  0.25000000  0.75000000  0.00000000  1
  Sn  Sn3  1  0.50000000  0.51134100  0.25000000  1
  Sn  Sn4  1  0.50000000  0.48865900  0.75000000  1
  Sn  Sn5  1  0.75000000  0.75000000  0.50000000  1
  Sn  Sn6  1  0.75000000  0.25000000  0.00000000  1
  Sn  Sn7  1  0.00000000  0.01134100  0.25000000  1
  P  P8  1  0.18379650  0.49530150  0.18925700  1
  P  P9  1  0.98892550  0.71722950  0.02050000  1
  P  P10  1  0.68379650  0.00469850  0.68925700  1
  P  P11  1  0.01107450  0.71722950  0.47950000  1
  P  P12  1  0.48892550  0.78277050  0.52050000  1
  P  P13  1  0.81620350  0.49530150  0.31074300  1
  P  P14  1  0.51107450  0.78277050  0.97950000  1
  P  P15  1  0.31620350  0.00469850  0.81074300  1
  P  P16  1  0.68379650  0.99530150  0.18925700  1
  P  P17  1  0.48892550  0.21722950  0.02050000  1
  P  P18  1  0.18379650  0.50469850  0.68925700  1
  P  P19  1  0.51107450  0.21722950  0.47950000  1
  P  P20  1  0.98892550  0.28277050  0.52050000  1
  P  P21  1  0.31620350  0.99530150  0.31074300  1
  P  P22  1  0.01107450  0.28277050  0.97950000  1
  P  P23  1  0.81620350  0.50469850  0.81074300  1
  O  O24  1  0.21387200  0.42726800  0.32344600  1
  O  O25  1  0.53745800  0.24647200  0.92897400  1
  O  O26  1  0.07550200  0.60739200  0.14596000  1
  O  O27  1  0.28207250  0.42861350  0.68270400  1
  O  O28  1  0.96275450  0.84407650  0.08455700  1
  O  O29  1  0.53745800  0.75352800  0.42897400  1
  O  O30  1  0.36899800  0.12230000  0.93749300  1
  O  O31  1  0.03724550  0.84407650  0.41544300  1
  O  O32  1  0.13100200  0.62230000  0.56250700  1
  O  O33  1  0.71387200  0.07273200  0.82344600  1
  O  O34  1  0.92449800  0.60739200  0.35404000  1
  O  O35  1  0.21792750  0.92861350  0.81729600  1
  O  O36  1  0.28207250  0.57138650  0.18270400  1
  O  O37  1  0.57550200  0.89260800  0.64596000  1
  O  O38  1  0.78612800  0.42726800  0.17655400  1
  O  O39  1  0.36899800  0.87770000  0.43749300  1
  O  O40  1  0.46275450  0.65592350  0.58455700  1
  O  O41  1  0.13100200  0.37770000  0.06250700  1
  O  O42  1  0.96254200  0.74647200  0.57102600  1
  O  O43  1  0.53724550  0.65592350  0.91544300  1
  O  O44  1  0.21792750  0.07138650  0.31729600  1
  O  O45  1  0.42449800  0.89260800  0.85404000  1
  O  O46  1  0.96254200  0.25352800  0.07102600  1
  O  O47  1  0.28612800  0.07273200  0.67655400  1
  O  O48  1  0.71387200  0.92726800  0.32344600  1
  O  O49  1  0.03745800  0.74647200  0.92897400  1
  O  O50  1  0.57550200  0.10739200  0.14596000  1
  O  O51  1  0.78207250  0.92861350  0.68270400  1
  O  O52  1  0.46275450  0.34407650  0.08455700  1
  O  O53  1  0.03745800  0.25352800  0.42897400  1
  O  O54  1  0.86899800  0.62230000  0.93749300  1
  O  O55  1  0.53724550  0.34407650  0.41544300  1
  O  O56  1  0.63100200  0.12230000  0.56250700  1
  O  O57  1  0.21387200  0.57273200  0.82344600  1
  O  O58  1  0.42449800  0.10739200  0.35404000  1
  O  O59  1  0.71792750  0.42861350  0.81729600  1
  O  O60  1  0.78207250  0.07138650  0.18270400  1
  O  O61  1  0.07550200  0.39260800  0.64596000  1
  O  O62  1  0.28612800  0.92726800  0.17655400  1
  O  O63  1  0.86899800  0.37770000  0.43749300  1
  O  O64  1  0.96275450  0.15592350  0.58455700  1
  O  O65  1  0.63100200  0.87770000  0.06250700  1
  O  O66  1  0.46254200  0.24647200  0.57102600  1
  O  O67  1  0.03724550  0.15592350  0.91544300  1
  O  O68  1  0.71792750  0.57138650  0.31729600  1
  O  O69  1  0.92449800  0.39260800  0.85404000  1
  O  O70  1  0.46254200  0.75352800  0.07102600  1
  O  O71  1  0.78612800  0.57273200  0.67655400  1
