# generated using pymatgen
data_Na4Bi2C4SO16
_symmetry_space_group_name_H-M   'P 1'
_cell_length_a   14.29360800
_cell_length_b   14.54985600
_cell_length_c   15.45089000
_cell_angle_alpha   90.00000000
_cell_angle_beta   90.00000000
_cell_angle_gamma   90.00000000
_symmetry_Int_Tables_number   1
_chemical_formula_structural   Na4Bi2C4SO16
_chemical_formula_sum   'Na32 Bi16 C32 S8 O128'
_cell_volume   3213.32063721
_cell_formula_units_Z   8
loop_
 _symmetry_equiv_pos_site_id
 _symmetry_equiv_pos_as_xyz
  1  'x, y, z'
loop_
 _atom_site_type_symbol
 _atom_site_label
 _atom_site_symmetry_multiplicity
 _atom_site_fract_x
 _atom_site_fract_y
 _atom_site_fract_z
 _atom_site_occupancy
  Na  Na0  1  0.75000000  0.45023800  0.25000000  1
  Na  Na1  1  0.54829200  0.25000000  0.25000000  1
  Na  Na2  1  0.29829200  0.00000000  0.00000000  1
  Na  Na3  1  0.50000000  0.20023800  0.00000000  1
  Na  Na4  1  0.75000000  0.04976200  0.25000000  1
  Na  Na5  1  0.95170800  0.25000000  0.25000000  1
  Na  Na6  1  0.70170800  0.00000000  0.00000000  1
  Na  Na7  1  0.50000000  0.79976200  0.00000000  1
  Na  Na8  1  0.75000000  0.95023800  0.75000000  1
  Na  Na9  1  0.54829200  0.75000000  0.75000000  1
  Na  Na10  1  0.29829200  0.50000000  0.50000000  1
  Na  Na11  1  0.50000000  0.70023800  0.50000000  1
  Na  Na12  1  0.75000000  0.54976200  0.75000000  1
  Na  Na13  1  0.95170800  0.75000000  0.75000000  1
  Na  Na14  1  0.70170800  0.50000000  0.50000000  1
  Na  Na15  1  0.50000000  0.29976200  0.50000000  1
  Na  Na16  1  0.25000000  0.45023800  0.75000000  1
  Na  Na17  1  0.04829200  0.25000000  0.75000000  1
  Na  Na18  1  0.79829200  0.00000000  0.50000000  1
  Na  Na19  1  0.00000000  0.20023800  0.50000000  1
  Na  Na20  1  0.25000000  0.04976200  0.75000000  1
  Na  Na21  1  0.45170800  0.25000000  0.75000000  1
  Na  Na22  1  0.20170800  0.00000000  0.50000000  1
  Na  Na23  1  0.00000000  0.79976200  0.50000000  1
  Na  Na24  1  0.25000000  0.95023800  0.25000000  1
  Na  Na25  1  0.04829200  0.75000000  0.25000000  1
  Na  Na26  1  0.79829200  0.50000000  0.00000000  1
  Na  Na27  1  0.00000000  0.70023800  0.00000000  1
  Na  Na28  1  0.25000000  0.54976200  0.25000000  1
  Na  Na29  1  0.45170800  0.75000000  0.25000000  1
  Na  Na30  1  0.20170800  0.50000000  0.00000000  1
  Na  Na31  1  0.00000000  0.29976200  0.00000000  1
  Bi  Bi32  1  0.87500000  0.62500000  0.37500000  1
  Bi  Bi33  1  0.62500000  0.87500000  0.37500000  1
  Bi  Bi34  1  0.62500000  0.62500000  0.12500000  1
  Bi  Bi35  1  0.87500000  0.87500000  0.12500000  1
  Bi  Bi36  1  0.87500000  0.12500000  0.87500000  1
  Bi  Bi37  1  0.62500000  0.37500000  0.87500000  1
  Bi  Bi38  1  0.62500000  0.12500000  0.62500000  1
  Bi  Bi39  1  0.87500000  0.37500000  0.62500000  1
  Bi  Bi40  1  0.37500000  0.62500000  0.87500000  1
  Bi  Bi41  1  0.12500000  0.87500000  0.87500000  1
  Bi  Bi42  1  0.12500000  0.62500000  0.62500000  1
  Bi  Bi43  1  0.37500000  0.87500000  0.62500000  1
  Bi  Bi44  1  0.37500000  0.12500000  0.37500000  1
  Bi  Bi45  1  0.12500000  0.37500000  0.37500000  1
  Bi  Bi46  1  0.12500000  0.12500000  0.12500000  1
  Bi  Bi47  1  0.37500000  0.37500000  0.12500000  1
  C  C48  1  0.59959000  0.40285950  0.09035350  1
  C  C49  1  0.34959000  0.15285950  0.15964650  1
  C  C50  1  0.90041000  0.40285950  0.40964650  1
  C  C51  1  0.59959000  0.09714050  0.40964650  1
  C  C52  1  0.15041000  0.15285950  0.34035350  1
  C  C53  1  0.84959000  0.84714050  0.34035350  1
  C  C54  1  0.90041000  0.09714050  0.09035350  1
  C  C55  1  0.65041000  0.84714050  0.15964650  1
  C  C56  1  0.59959000  0.90285950  0.59035350  1
  C  C57  1  0.34959000  0.65285950  0.65964650  1
  C  C58  1  0.90041000  0.90285950  0.90964650  1
  C  C59  1  0.59959000  0.59714050  0.90964650  1
  C  C60  1  0.15041000  0.65285950  0.84035350  1
  C  C61  1  0.84959000  0.34714050  0.84035350  1
  C  C62  1  0.90041000  0.59714050  0.59035350  1
  C  C63  1  0.65041000  0.34714050  0.65964650  1
  C  C64  1  0.09959000  0.40285950  0.59035350  1
  C  C65  1  0.84959000  0.15285950  0.65964650  1
  C  C66  1  0.40041000  0.40285950  0.90964650  1
  C  C67  1  0.09959000  0.09714050  0.90964650  1
  C  C68  1  0.65041000  0.15285950  0.84035350  1
  C  C69  1  0.34959000  0.84714050  0.84035350  1
  C  C70  1  0.40041000  0.09714050  0.59035350  1
  C  C71  1  0.15041000  0.84714050  0.65964650  1
  C  C72  1  0.09959000  0.90285950  0.09035350  1
  C  C73  1  0.84959000  0.65285950  0.15964650  1
  C  C74  1  0.40041000  0.90285950  0.40964650  1
  C  C75  1  0.09959000  0.59714050  0.40964650  1
  C  C76  1  0.65041000  0.65285950  0.34035350  1
  C  C77  1  0.34959000  0.34714050  0.34035350  1
  C  C78  1  0.40041000  0.59714050  0.09035350  1
  C  C79  1  0.15041000  0.34714050  0.15964650  1
  S  S80  1  0.50000000  0.00000000  0.00000000  1
  S  S81  1  0.75000000  0.25000000  0.25000000  1
  S  S82  1  0.50000000  0.50000000  0.50000000  1
  S  S83  1  0.75000000  0.75000000  0.75000000  1
  S  S84  1  0.00000000  0.00000000  0.50000000  1
  S  S85  1  0.25000000  0.25000000  0.75000000  1
  S  S86  1  0.00000000  0.50000000  0.00000000  1
  S  S87  1  0.25000000  0.75000000  0.25000000  1
  O  O88  1  0.10831700  0.96442650  0.15079250  1
  O  O89  1  0.43860400  0.93947700  0.05421000  1
  O  O90  1  0.15475850  0.90403850  0.02389500  1
  O  O91  1  0.40475850  0.15403850  0.22610500  1
  O  O92  1  0.34524150  0.90403850  0.47610500  1
  O  O93  1  0.28493750  0.08967400  0.15251150  1
  O  O94  1  0.06139600  0.93947700  0.44579000  1
  O  O95  1  0.56139600  0.06052300  0.05421000  1
  O  O96  1  0.78493750  0.91032600  0.34748850  1
  O  O97  1  0.65475850  0.09596150  0.47610500  1
  O  O98  1  0.35831700  0.21442650  0.09920750  1
  O  O99  1  0.93860400  0.06052300  0.44579000  1
  O  O100  1  0.39168300  0.96442650  0.34920750  1
  O  O101  1  0.60831700  0.03557350  0.34920750  1
  O  O102  1  0.53493750  0.33967400  0.09748850  1
  O  O103  1  0.21506250  0.08967400  0.34748850  1
  O  O104  1  0.03493750  0.66032600  0.40251150  1
  O  O105  1  0.71506250  0.91032600  0.15251150  1
  O  O106  1  0.14168300  0.21442650  0.40079250  1
  O  O107  1  0.85831700  0.78557350  0.40079250  1
  O  O108  1  0.81139600  0.18947700  0.30421000  1
  O  O109  1  0.89168300  0.03557350  0.15079250  1
  O  O110  1  0.09524150  0.15403850  0.27389500  1
  O  O111  1  0.96506250  0.33967400  0.40251150  1
  O  O112  1  0.68860400  0.18947700  0.19579000  1
  O  O113  1  0.68860400  0.31052300  0.30421000  1
  O  O114  1  0.46506250  0.66032600  0.09748850  1
  O  O115  1  0.90475850  0.84596150  0.27389500  1
  O  O116  1  0.84524150  0.09596150  0.02389500  1
  O  O117  1  0.59524150  0.84596150  0.22610500  1
  O  O118  1  0.81139600  0.31052300  0.19579000  1
  O  O119  1  0.64168300  0.78557350  0.09920750  1
  O  O120  1  0.10831700  0.46442650  0.65079250  1
  O  O121  1  0.43860400  0.43947700  0.55421000  1
  O  O122  1  0.15475850  0.40403850  0.52389500  1
  O  O123  1  0.40475850  0.65403850  0.72610500  1
  O  O124  1  0.34524150  0.40403850  0.97610500  1
  O  O125  1  0.28493750  0.58967400  0.65251150  1
  O  O126  1  0.06139600  0.43947700  0.94579000  1
  O  O127  1  0.56139600  0.56052300  0.55421000  1
  O  O128  1  0.78493750  0.41032600  0.84748850  1
  O  O129  1  0.65475850  0.59596150  0.97610500  1
  O  O130  1  0.35831700  0.71442650  0.59920750  1
  O  O131  1  0.93860400  0.56052300  0.94579000  1
  O  O132  1  0.39168300  0.46442650  0.84920750  1
  O  O133  1  0.60831700  0.53557350  0.84920750  1
  O  O134  1  0.53493750  0.83967400  0.59748850  1
  O  O135  1  0.21506250  0.58967400  0.84748850  1
  O  O136  1  0.03493750  0.16032600  0.90251150  1
  O  O137  1  0.71506250  0.41032600  0.65251150  1
  O  O138  1  0.14168300  0.71442650  0.90079250  1
  O  O139  1  0.85831700  0.28557350  0.90079250  1
  O  O140  1  0.81139600  0.68947700  0.80421000  1
  O  O141  1  0.89168300  0.53557350  0.65079250  1
  O  O142  1  0.09524150  0.65403850  0.77389500  1
  O  O143  1  0.96506250  0.83967400  0.90251150  1
  O  O144  1  0.68860400  0.68947700  0.69579000  1
  O  O145  1  0.68860400  0.81052300  0.80421000  1
  O  O146  1  0.46506250  0.16032600  0.59748850  1
  O  O147  1  0.90475850  0.34596150  0.77389500  1
  O  O148  1  0.84524150  0.59596150  0.52389500  1
  O  O149  1  0.59524150  0.34596150  0.72610500  1
  O  O150  1  0.81139600  0.81052300  0.69579000  1
  O  O151  1  0.64168300  0.28557350  0.59920750  1
  O  O152  1  0.60831700  0.96442650  0.65079250  1
  O  O153  1  0.93860400  0.93947700  0.55421000  1
  O  O154  1  0.65475850  0.90403850  0.52389500  1
  O  O155  1  0.90475850  0.15403850  0.72610500  1
  O  O156  1  0.84524150  0.90403850  0.97610500  1
  O  O157  1  0.78493750  0.08967400  0.65251150  1
  O  O158  1  0.56139600  0.93947700  0.94579000  1
  O  O159  1  0.06139600  0.06052300  0.55421000  1
  O  O160  1  0.28493750  0.91032600  0.84748850  1
  O  O161  1  0.15475850  0.09596150  0.97610500  1
  O  O162  1  0.85831700  0.21442650  0.59920750  1
  O  O163  1  0.43860400  0.06052300  0.94579000  1
  O  O164  1  0.89168300  0.96442650  0.84920750  1
  O  O165  1  0.10831700  0.03557350  0.84920750  1
  O  O166  1  0.03493750  0.33967400  0.59748850  1
  O  O167  1  0.71506250  0.08967400  0.84748850  1
  O  O168  1  0.53493750  0.66032600  0.90251150  1
  O  O169  1  0.21506250  0.91032600  0.65251150  1
  O  O170  1  0.64168300  0.21442650  0.90079250  1
  O  O171  1  0.35831700  0.78557350  0.90079250  1
  O  O172  1  0.31139600  0.18947700  0.80421000  1
  O  O173  1  0.39168300  0.03557350  0.65079250  1
  O  O174  1  0.59524150  0.15403850  0.77389500  1
  O  O175  1  0.46506250  0.33967400  0.90251150  1
  O  O176  1  0.18860400  0.18947700  0.69579000  1
  O  O177  1  0.18860400  0.31052300  0.80421000  1
  O  O178  1  0.96506250  0.66032600  0.59748850  1
  O  O179  1  0.40475850  0.84596150  0.77389500  1
  O  O180  1  0.34524150  0.09596150  0.52389500  1
  O  O181  1  0.09524150  0.84596150  0.72610500  1
  O  O182  1  0.31139600  0.31052300  0.69579000  1
  O  O183  1  0.14168300  0.78557350  0.59920750  1
  O  O184  1  0.60831700  0.46442650  0.15079250  1
  O  O185  1  0.93860400  0.43947700  0.05421000  1
  O  O186  1  0.65475850  0.40403850  0.02389500  1
  O  O187  1  0.90475850  0.65403850  0.22610500  1
  O  O188  1  0.84524150  0.40403850  0.47610500  1
  O  O189  1  0.78493750  0.58967400  0.15251150  1
  O  O190  1  0.56139600  0.43947700  0.44579000  1
  O  O191  1  0.06139600  0.56052300  0.05421000  1
  O  O192  1  0.28493750  0.41032600  0.34748850  1
  O  O193  1  0.15475850  0.59596150  0.47610500  1
  O  O194  1  0.85831700  0.71442650  0.09920750  1
  O  O195  1  0.43860400  0.56052300  0.44579000  1
  O  O196  1  0.89168300  0.46442650  0.34920750  1
  O  O197  1  0.10831700  0.53557350  0.34920750  1
  O  O198  1  0.03493750  0.83967400  0.09748850  1
  O  O199  1  0.71506250  0.58967400  0.34748850  1
  O  O200  1  0.53493750  0.16032600  0.40251150  1
  O  O201  1  0.21506250  0.41032600  0.15251150  1
  O  O202  1  0.64168300  0.71442650  0.40079250  1
  O  O203  1  0.35831700  0.28557350  0.40079250  1
  O  O204  1  0.31139600  0.68947700  0.30421000  1
  O  O205  1  0.39168300  0.53557350  0.15079250  1
  O  O206  1  0.59524150  0.65403850  0.27389500  1
  O  O207  1  0.46506250  0.83967400  0.40251150  1
  O  O208  1  0.18860400  0.68947700  0.19579000  1
  O  O209  1  0.18860400  0.81052300  0.30421000  1
  O  O210  1  0.96506250  0.16032600  0.09748850  1
  O  O211  1  0.40475850  0.34596150  0.27389500  1
  O  O212  1  0.34524150  0.59596150  0.02389500  1
  O  O213  1  0.09524150  0.34596150  0.22610500  1
  O  O214  1  0.31139600  0.81052300  0.19579000  1
  O  O215  1  0.14168300  0.28557350  0.09920750  1
