# generated using pymatgen
data_Tm3TaO7
_symmetry_space_group_name_H-M   'P 1'
_cell_length_a   7.30755100
_cell_length_b   10.47472200
_cell_length_c   7.42868000
_cell_angle_alpha   90.00000000
_cell_angle_beta   90.00000000
_cell_angle_gamma   90.00000000
_symmetry_Int_Tables_number   1
_chemical_formula_structural   Tm3TaO7
_chemical_formula_sum   'Tm12 Ta4 O28'
_cell_volume   568.62508080
_cell_formula_units_Z   4
loop_
 _symmetry_equiv_pos_site_id
 _symmetry_equiv_pos_as_xyz
  1  'x, y, z'
loop_
 _atom_site_type_symbol
 _atom_site_label
 _atom_site_symmetry_multiplicity
 _atom_site_fract_x
 _atom_site_fract_y
 _atom_site_fract_z
 _atom_site_occupancy
  Tm  Tm0  1  0.28326050  0.23078250  0.25000000  1
  Tm  Tm1  1  0.71673950  0.23078250  0.75000000  1
  Tm  Tm2  1  0.00000000  0.00000000  0.00000000  1
  Tm  Tm3  1  0.00000000  0.00000000  0.50000000  1
  Tm  Tm4  1  0.71673950  0.76921750  0.75000000  1
  Tm  Tm5  1  0.28326050  0.76921750  0.25000000  1
  Tm  Tm6  1  0.78326050  0.73078250  0.25000000  1
  Tm  Tm7  1  0.21673950  0.73078250  0.75000000  1
  Tm  Tm8  1  0.50000000  0.50000000  0.00000000  1
  Tm  Tm9  1  0.50000000  0.50000000  0.50000000  1
  Tm  Tm10  1  0.21673950  0.26921750  0.75000000  1
  Tm  Tm11  1  0.78326050  0.26921750  0.25000000  1
  Ta  Ta12  1  0.50000000  0.00000000  0.00000000  1
  Ta  Ta13  1  0.50000000  0.00000000  0.50000000  1
  Ta  Ta14  1  0.00000000  0.50000000  0.00000000  1
  Ta  Ta15  1  0.00000000  0.50000000  0.50000000  1
  O  O16  1  0.51978500  0.36680800  0.25000000  1
  O  O17  1  0.48021500  0.36680800  0.75000000  1
  O  O18  1  0.69422900  0.13060300  0.03666800  1
  O  O19  1  0.69422900  0.13060300  0.46333200  1
  O  O20  1  0.30577100  0.13060300  0.96333200  1
  O  O21  1  0.30577100  0.13060300  0.53666800  1
  O  O22  1  0.58598600  0.00000000  0.75000000  1
  O  O23  1  0.41401400  0.00000000  0.25000000  1
  O  O24  1  0.69422900  0.86939700  0.03666800  1
  O  O25  1  0.30577100  0.86939700  0.53666800  1
  O  O26  1  0.30577100  0.86939700  0.96333200  1
  O  O27  1  0.69422900  0.86939700  0.46333200  1
  O  O28  1  0.48021500  0.63319200  0.75000000  1
  O  O29  1  0.51978500  0.63319200  0.25000000  1
  O  O30  1  0.01978500  0.86680800  0.25000000  1
  O  O31  1  0.98021500  0.86680800  0.75000000  1
  O  O32  1  0.19422900  0.63060300  0.03666800  1
  O  O33  1  0.19422900  0.63060300  0.46333200  1
  O  O34  1  0.80577100  0.63060300  0.96333200  1
  O  O35  1  0.80577100  0.63060300  0.53666800  1
  O  O36  1  0.08598600  0.50000000  0.75000000  1
  O  O37  1  0.91401400  0.50000000  0.25000000  1
  O  O38  1  0.19422900  0.36939700  0.03666800  1
  O  O39  1  0.80577100  0.36939700  0.53666800  1
  O  O40  1  0.80577100  0.36939700  0.96333200  1
  O  O41  1  0.19422900  0.36939700  0.46333200  1
  O  O42  1  0.98021500  0.13319200  0.75000000  1
  O  O43  1  0.01978500  0.13319200  0.25000000  1
