# generated using pymatgen
data_Cu2H26C6S7N12O5
_symmetry_space_group_name_H-M   'P 1'
_cell_length_a   11.20107300
_cell_length_b   11.44354460
_cell_length_c   12.35018152
_cell_angle_alpha   64.68038214
_cell_angle_beta   76.35620171
_cell_angle_gamma   66.62434352
_symmetry_Int_Tables_number   1
_chemical_formula_structural   Cu2H26C6S7N12O5
_chemical_formula_sum   'Cu4 H52 C12 S14 N24 O10'
_cell_volume   1309.33518252
_cell_formula_units_Z   2
loop_
 _symmetry_equiv_pos_site_id
 _symmetry_equiv_pos_as_xyz
  1  'x, y, z'
loop_
 _atom_site_type_symbol
 _atom_site_label
 _atom_site_symmetry_multiplicity
 _atom_site_fract_x
 _atom_site_fract_y
 _atom_site_fract_z
 _atom_site_occupancy
  Cu  Cu0  1  0.36416300  0.09554500  0.25258500  1
  Cu  Cu1  1  0.61912900  0.21807700  0.40044400  1
  Cu  Cu2  1  0.38087100  0.78192300  0.59955600  1
  Cu  Cu3  1  0.63583700  0.90445500  0.74741500  1
  H  H4  1  0.12526100  0.02281200  0.33461400  1
  H  H5  1  0.30545100  0.11738600  0.03459900  1
  H  H6  1  0.99837900  0.35950400  0.93066300  1
  H  H7  1  0.11987300  0.33407300  0.50567000  1
  H  H8  1  0.17754100  0.40307100  0.35536900  1
  H  H9  1  0.25575600  0.14724300  0.64270600  1
  H  H10  1  0.23130000  0.55554400  0.17241100  1
  H  H11  1  0.19367300  0.18268500  0.92602000  1
  H  H12  1  0.10382400  0.53718400  0.72121300  1
  H  H13  1  0.04599600  0.59376700  0.94379100  1
  H  H14  1  0.37736600  0.32272100  0.05761300  1
  H  H15  1  0.06125900  0.90064800  0.34543500  1
  H  H16  1  0.40499300  0.04900500  0.59172900  1
  H  H17  1  0.24404600  0.32926300  0.71227600  1
  H  H18  1  0.18912200  0.67394800  0.39823600  1
  H  H19  1  0.37094300  0.44367400  0.18994500  1
  H  H20  1  0.16293200  0.66747000  0.69859100  1
  H  H21  1  0.28931100  0.89450500  0.08525400  1
  H  H22  1  0.35082300  0.71657400  0.14822500  1
  H  H23  1  0.05791500  0.99014700  0.87022700  1
  H  H24  1  0.41156800  0.30346200  0.67684000  1
  H  H25  1  0.35781400  0.62381400  0.41502600  1
  H  H26  1  0.12542500  0.84911400  0.99725500  1
  H  H27  1  0.54462200  0.59799800  0.08209500  1
  H  H28  1  0.29439600  0.65441000  0.97835100  1
  H  H29  1  0.34156600  0.64863500  0.83335100  1
  H  H30  1  0.65843400  0.35136500  0.16664900  1
  H  H31  1  0.70560400  0.34559000  0.02164900  1
  H  H32  1  0.45537800  0.40200200  0.91790500  1
  H  H33  1  0.87457500  0.15088600  0.00274500  1
  H  H34  1  0.64218600  0.37618600  0.58497400  1
  H  H35  1  0.58843200  0.69653800  0.32316000  1
  H  H36  1  0.94208500  0.00985300  0.12977300  1
  H  H37  1  0.64917700  0.28342600  0.85177500  1
  H  H38  1  0.71068900  0.10549500  0.91474600  1
  H  H39  1  0.83706800  0.33253000  0.30140900  1
  H  H40  1  0.62905700  0.55632600  0.81005500  1
  H  H41  1  0.81087800  0.32605200  0.60176400  1
  H  H42  1  0.75595400  0.67073700  0.28772400  1
  H  H43  1  0.59500700  0.95099500  0.40827100  1
  H  H44  1  0.93874100  0.09935200  0.65456500  1
  H  H45  1  0.62263400  0.67727900  0.94238700  1
  H  H46  1  0.95400400  0.40623300  0.05620900  1
  H  H47  1  0.89617600  0.46281600  0.27878700  1
  H  H48  1  0.80632700  0.81731500  0.07398000  1
  H  H49  1  0.76870000  0.44445600  0.82758900  1
  H  H50  1  0.74424400  0.85275700  0.35729400  1
  H  H51  1  0.82245900  0.59692900  0.64463100  1
  H  H52  1  0.88012700  0.66592700  0.49433000  1
  H  H53  1  0.00162100  0.64049600  0.06933700  1
  H  H54  1  0.69454900  0.88261400  0.96540100  1
  H  H55  1  0.87473900  0.97718800  0.66538600  1
  C  C56  1  0.13150100  0.25687700  0.06238900  1
  C  C57  1  0.30893400  0.22753700  0.46223500  1
  C  C58  1  0.30290400  0.48814700  0.69307300  1
  C  C59  1  0.25368700  0.82648600  0.37966100  1
  C  C60  1  0.19686400  0.82363000  0.83607700  1
  C  C61  1  0.45944800  0.80551900  0.00056800  1
  C  C62  1  0.54055200  0.19448100  0.99943200  1
  C  C63  1  0.80313600  0.17637000  0.16392300  1
  C  C64  1  0.74631300  0.17351400  0.62033900  1
  C  C65  1  0.69709600  0.51185300  0.30692700  1
  C  C66  1  0.69106600  0.77246300  0.53776500  1
  C  C67  1  0.86849900  0.74312300  0.93761100  1
  S  S68  1  0.16376900  0.25288800  0.19374900  1
  S  S69  1  0.53613600  0.04683800  0.11773200  1
  S  S70  1  0.43152500  0.20870500  0.34744500  1
  S  S71  1  0.18539100  0.89272500  0.68306900  1
  S  S72  1  0.43491200  0.53938300  0.67190500  1
  S  S73  1  0.61581800  0.13260600  0.61182200  1
  S  S74  1  0.38418200  0.86739400  0.38817800  1
  S  S75  1  0.56508800  0.46061700  0.32809500  1
  S  S76  1  0.81460900  0.10727500  0.31693100  1
  S  S77  1  0.56847500  0.79129500  0.65255500  1
  S  S78  1  0.46386400  0.95316200  0.88226800  1
  S  S79  1  0.83623100  0.74711200  0.80625100  1
  S  S80  1  0.00503600  0.71557300  0.25186300  1
  S  S81  1  0.99496400  0.28442700  0.74813700  1
  N  N82  1  0.02022300  0.34744000  0.01215700  1
  N  N83  1  0.21357200  0.17369400  0.00683400  1
  N  N84  1  0.19569400  0.33135600  0.43948700  1
  N  N85  1  0.32736100  0.13822100  0.57460600  1
  N  N86  1  0.18050600  0.56683300  0.71511300  1
  N  N87  1  0.13740900  0.92369600  0.35230000  1
  N  N88  1  0.31992600  0.36687400  0.69132400  1
  N  N89  1  0.26780300  0.69751000  0.40113700  1
  N  N90  1  0.36463500  0.80656900  0.09056500  1
  N  N91  1  0.12045600  0.89162400  0.90595500  1
  N  N92  1  0.28187500  0.69807400  0.88812800  1
  N  N93  1  0.55021800  0.68313100  0.00924800  1
  N  N94  1  0.44978200  0.31686900  0.99075200  1
  N  N95  1  0.71812500  0.30192600  0.11187200  1
  N  N96  1  0.87954400  0.10837600  0.09404500  1
  N  N97  1  0.63536500  0.19343100  0.90943500  1
  N  N98  1  0.73219700  0.30249000  0.59886300  1
  N  N99  1  0.68007400  0.63312600  0.30867600  1
  N  N100  1  0.86259100  0.07630400  0.64770000  1
  N  N101  1  0.81949400  0.43316700  0.28488700  1
  N  N102  1  0.67263900  0.86177900  0.42539400  1
  N  N103  1  0.80430600  0.66864400  0.56051300  1
  N  N104  1  0.78642800  0.82630600  0.99316600  1
  N  N105  1  0.97977700  0.65256000  0.98784300  1
  O  O106  1  0.06114800  0.58762300  0.22245000  1
  O  O107  1  0.02456500  0.67976800  0.37910800  1
  O  O108  1  0.13818500  0.22491200  0.76502800  1
  O  O109  1  0.07077200  0.81591600  0.16925000  1
  O  O110  1  0.32441100  0.53988200  0.14144600  1
  O  O111  1  0.67558900  0.46011800  0.85855400  1
  O  O112  1  0.92922800  0.18408400  0.83075000  1
  O  O113  1  0.86181500  0.77508800  0.23497200  1
  O  O114  1  0.97543500  0.32023200  0.62089200  1
  O  O115  1  0.93885200  0.41237700  0.77755000  1
