# generated using pymatgen
data_Rb3ErO3
_symmetry_space_group_name_H-M   'P 1'
_cell_length_a   7.72656600
_cell_length_b   12.39043800
_cell_length_c   7.23968554
_cell_angle_alpha   90.00000000
_cell_angle_beta   99.20302634
_cell_angle_gamma   90.00000000
_symmetry_Int_Tables_number   1
_chemical_formula_structural   Rb3ErO3
_chemical_formula_sum   'Rb12 Er4 O12'
_cell_volume   684.17353632
_cell_formula_units_Z   4
loop_
 _symmetry_equiv_pos_site_id
 _symmetry_equiv_pos_as_xyz
  1  'x, y, z'
loop_
 _atom_site_type_symbol
 _atom_site_label
 _atom_site_symmetry_multiplicity
 _atom_site_fract_x
 _atom_site_fract_y
 _atom_site_fract_z
 _atom_site_occupancy
  Rb  Rb0  1  0.50000000  0.70422700  0.50000000  1
  Rb  Rb1  1  0.50000000  0.76088700  0.00000000  1
  Rb  Rb2  1  0.36397800  0.00000000  0.64353500  1
  Rb  Rb3  1  0.63602200  0.00000000  0.35646500  1
  Rb  Rb4  1  0.50000000  0.23911300  0.00000000  1
  Rb  Rb5  1  0.50000000  0.29577300  0.50000000  1
  Rb  Rb6  1  0.00000000  0.20422700  0.50000000  1
  Rb  Rb7  1  0.00000000  0.26088700  0.00000000  1
  Rb  Rb8  1  0.86397800  0.50000000  0.64353500  1
  Rb  Rb9  1  0.13602200  0.50000000  0.35646500  1
  Rb  Rb10  1  0.00000000  0.73911300  0.00000000  1
  Rb  Rb11  1  0.00000000  0.79577300  0.50000000  1
  Er  Er12  1  0.17628300  0.00000000  0.14882000  1
  Er  Er13  1  0.82371700  0.00000000  0.85118000  1
  Er  Er14  1  0.67628300  0.50000000  0.14882000  1
  Er  Er15  1  0.32371700  0.50000000  0.85118000  1
  O  O16  1  0.30433900  0.86166100  0.26744200  1
  O  O17  1  0.10169800  0.00000000  0.84442200  1
  O  O18  1  0.69566100  0.86166100  0.73255800  1
  O  O19  1  0.30433900  0.13833900  0.26744200  1
  O  O20  1  0.89830200  0.00000000  0.15557800  1
  O  O21  1  0.69566100  0.13833900  0.73255800  1
  O  O22  1  0.80433900  0.36166100  0.26744200  1
  O  O23  1  0.60169800  0.50000000  0.84442200  1
  O  O24  1  0.19566100  0.36166100  0.73255800  1
  O  O25  1  0.80433900  0.63833900  0.26744200  1
  O  O26  1  0.39830200  0.50000000  0.15557800  1
  O  O27  1  0.19566100  0.63833900  0.73255800  1
