# generated using pymatgen
data_Mg3(AsO4)2
_symmetry_space_group_name_H-M   'P 1'
_cell_length_a   6.12071200
_cell_length_b   11.43949600
_cell_length_c   8.30616400
_cell_angle_alpha   90.00000000
_cell_angle_beta   90.00000000
_cell_angle_gamma   90.00000000
_symmetry_Int_Tables_number   1
_chemical_formula_structural   Mg3(AsO4)2
_chemical_formula_sum   'Mg12 As8 O32'
_cell_volume   581.57983175
_cell_formula_units_Z   4
loop_
 _symmetry_equiv_pos_site_id
 _symmetry_equiv_pos_as_xyz
  1  'x, y, z'
loop_
 _atom_site_type_symbol
 _atom_site_label
 _atom_site_symmetry_multiplicity
 _atom_site_fract_x
 _atom_site_fract_y
 _atom_site_fract_z
 _atom_site_occupancy
  Mg  Mg0  1  0.25000000  0.63929800  0.75000000  1
  Mg  Mg1  1  0.75000000  0.86070200  0.25000000  1
  Mg  Mg2  1  0.00000000  0.50000000  0.50000000  1
  Mg  Mg3  1  0.50000000  0.50000000  0.00000000  1
  Mg  Mg4  1  0.25000000  0.86070200  0.25000000  1
  Mg  Mg5  1  0.75000000  0.63929800  0.75000000  1
  Mg  Mg6  1  0.75000000  0.13929800  0.75000000  1
  Mg  Mg7  1  0.25000000  0.36070200  0.25000000  1
  Mg  Mg8  1  0.50000000  0.00000000  0.50000000  1
  Mg  Mg9  1  0.00000000  0.00000000  0.00000000  1
  Mg  Mg10  1  0.75000000  0.36070200  0.25000000  1
  Mg  Mg11  1  0.25000000  0.13929800  0.75000000  1
  As  As12  1  0.00000000  0.62042800  0.11525100  1
  As  As13  1  0.50000000  0.87957200  0.88474900  1
  As  As14  1  0.00000000  0.87957200  0.61525100  1
  As  As15  1  0.50000000  0.62042800  0.38474900  1
  As  As16  1  0.50000000  0.12042800  0.11525100  1
  As  As17  1  0.00000000  0.37957200  0.88474900  1
  As  As18  1  0.50000000  0.37957200  0.61525100  1
  As  As19  1  0.00000000  0.12042800  0.38474900  1
  O  O20  1  0.73249400  0.88116100  0.00025500  1
  O  O21  1  0.23249400  0.61883900  0.99974500  1
  O  O22  1  0.76750600  0.88116100  0.49974500  1
  O  O23  1  0.26750600  0.61883900  0.50025500  1
  O  O24  1  0.00000000  0.50053500  0.74984400  1
  O  O25  1  0.00000000  0.99946500  0.24984400  1
  O  O26  1  0.00000000  0.75331900  0.72730400  1
  O  O27  1  0.00000000  0.74668100  0.22730400  1
  O  O28  1  0.50000000  0.74668100  0.27269600  1
  O  O29  1  0.50000000  0.75331900  0.77269600  1
  O  O30  1  0.50000000  0.50053500  0.75015600  1
  O  O31  1  0.50000000  0.99946500  0.25015600  1
  O  O32  1  0.23249400  0.88116100  0.49974500  1
  O  O33  1  0.73249400  0.61883900  0.50025500  1
  O  O34  1  0.26750600  0.88116100  0.00025500  1
  O  O35  1  0.76750600  0.61883900  0.99974500  1
  O  O36  1  0.23249400  0.38116100  0.00025500  1
  O  O37  1  0.73249400  0.11883900  0.99974500  1
  O  O38  1  0.26750600  0.38116100  0.49974500  1
  O  O39  1  0.76750600  0.11883900  0.50025500  1
  O  O40  1  0.50000000  0.00053500  0.74984400  1
  O  O41  1  0.50000000  0.49946500  0.24984400  1
  O  O42  1  0.50000000  0.25331900  0.72730400  1
  O  O43  1  0.50000000  0.24668100  0.22730400  1
  O  O44  1  0.00000000  0.24668100  0.27269600  1
  O  O45  1  0.00000000  0.25331900  0.77269600  1
  O  O46  1  0.00000000  0.00053500  0.75015600  1
  O  O47  1  0.00000000  0.49946500  0.25015600  1
  O  O48  1  0.73249400  0.38116100  0.49974500  1
  O  O49  1  0.23249400  0.11883900  0.50025500  1
  O  O50  1  0.76750600  0.38116100  0.00025500  1
  O  O51  1  0.26750600  0.11883900  0.99974500  1
