# generated using pymatgen
data_Ti4SnO10
_symmetry_space_group_name_H-M   'P 1'
_cell_length_a   4.69893200
_cell_length_b   5.58382761
_cell_length_c   12.98147432
_cell_angle_alpha   101.61849365
_cell_angle_beta   90.01391185
_cell_angle_gamma   90.02667866
_symmetry_Int_Tables_number   1
_chemical_formula_structural   Ti4SnO10
_chemical_formula_sum   'Ti8 Sn2 O20'
_cell_volume   333.62924510
_cell_formula_units_Z   2
loop_
 _symmetry_equiv_pos_site_id
 _symmetry_equiv_pos_as_xyz
  1  'x, y, z'
loop_
 _atom_site_type_symbol
 _atom_site_label
 _atom_site_symmetry_multiplicity
 _atom_site_fract_x
 _atom_site_fract_y
 _atom_site_fract_z
 _atom_site_occupancy
  Ti  Ti0  1  0.50168500  0.09030800  0.90338700  1
  Ti  Ti1  1  0.50000000  0.50000000  0.50000000  1
  Ti  Ti2  1  0.49831500  0.90969200  0.09661300  1
  Ti  Ti3  1  0.99523900  0.79925700  0.70012300  1
  Ti  Ti4  1  0.00000000  0.00000000  0.50000000  1
  Ti  Ti5  1  0.00476100  0.20074300  0.29987700  1
  Ti  Ti6  1  0.98242200  0.40300200  0.09828200  1
  Ti  Ti7  1  0.01757800  0.59699800  0.90171800  1
  Sn  Sn8  1  0.49856900  0.69989800  0.29860800  1
  Sn  Sn9  1  0.50143100  0.30010200  0.70139200  1
  O  O10  1  0.81750200  0.54695900  0.76317000  1
  O  O11  1  0.80204400  0.74978900  0.56304800  1
  O  O12  1  0.81811300  0.94399700  0.36065400  1
  O  O13  1  0.80165700  0.14786200  0.16023300  1
  O  O14  1  0.80623300  0.34434300  0.96108700  1
  O  O15  1  0.69889400  0.03342900  0.76631900  1
  O  O16  1  0.69984200  0.24511300  0.55520500  1
  O  O17  1  0.69873700  0.64492500  0.15328100  1
  O  O18  1  0.69423600  0.84601800  0.96179800  1
  O  O19  1  0.69976200  0.43475400  0.36449400  1
  O  O20  1  0.30126300  0.35507500  0.84671900  1
  O  O21  1  0.30110600  0.96657100  0.23368100  1
  O  O22  1  0.30023800  0.56524600  0.63550600  1
  O  O23  1  0.30015800  0.75488700  0.44479500  1
  O  O24  1  0.30576400  0.15398200  0.03820200  1
  O  O25  1  0.19795600  0.25021100  0.43695200  1
  O  O26  1  0.19834300  0.85213800  0.83976700  1
  O  O27  1  0.19376700  0.65565700  0.03891300  1
  O  O28  1  0.18188700  0.05600300  0.63934600  1
  O  O29  1  0.18249800  0.45304100  0.23683000  1
