# generated using pymatgen
data_LiV2F7
_symmetry_space_group_name_H-M   'P 1'
_cell_length_a   7.49443100
_cell_length_b   5.10711100
_cell_length_c   13.24839760
_cell_angle_alpha   90.00000000
_cell_angle_beta   95.96350101
_cell_angle_gamma   90.00000000
_symmetry_Int_Tables_number   1
_chemical_formula_structural   LiV2F7
_chemical_formula_sum   'Li4 V8 F28'
_cell_volume   504.33679450
_cell_formula_units_Z   4
loop_
 _symmetry_equiv_pos_site_id
 _symmetry_equiv_pos_as_xyz
  1  'x, y, z'
loop_
 _atom_site_type_symbol
 _atom_site_label
 _atom_site_symmetry_multiplicity
 _atom_site_fract_x
 _atom_site_fract_y
 _atom_site_fract_z
 _atom_site_occupancy
  Li  Li0  1  0.85130800  0.24108400  0.07297100  1
  Li  Li1  1  0.35130800  0.25891600  0.07297100  1
  Li  Li2  1  0.64869200  0.74108400  0.92702900  1
  Li  Li3  1  0.14869200  0.75891600  0.92702900  1
  V  V4  1  0.66530500  0.75554300  0.18234600  1
  V  V5  1  0.16530500  0.74445700  0.18234600  1
  V  V6  1  0.72767400  0.25084500  0.39389100  1
  V  V7  1  0.22767400  0.24915500  0.39389100  1
  V  V8  1  0.77232600  0.75084500  0.60610900  1
  V  V9  1  0.27232600  0.74915500  0.60610900  1
  V  V10  1  0.83469500  0.25554300  0.81765400  1
  V  V11  1  0.33469500  0.24445700  0.81765400  1
  F  F12  1  0.58402200  0.06211600  0.10774500  1
  F  F13  1  0.69442400  0.56172100  0.05910900  1
  F  F14  1  0.91588600  0.90403200  0.17630000  1
  F  F15  1  0.08402200  0.43788400  0.10774500  1
  F  F16  1  0.19442400  0.93827900  0.05910900  1
  F  F17  1  0.41588600  0.59596800  0.17630000  1
  F  F18  1  0.64563900  0.94669900  0.31128500  1
  F  F19  1  0.75785800  0.45632100  0.26788500  1
  F  F20  1  0.14563900  0.55330100  0.31128500  1
  F  F21  1  0.25785800  0.04367900  0.26788500  1
  F  F22  1  0.47740800  0.37039600  0.39355300  1
  F  F23  1  0.97740800  0.12960400  0.39355300  1
  F  F24  1  0.80456900  0.54902600  0.48015800  1
  F  F25  1  0.69543100  0.04902600  0.51984200  1
  F  F26  1  0.30456900  0.95097400  0.48015800  1
  F  F27  1  0.19543100  0.45097400  0.51984200  1
  F  F28  1  0.02259200  0.87039600  0.60644700  1
  F  F29  1  0.52259200  0.62960400  0.60644700  1
  F  F30  1  0.74214200  0.95632100  0.73211500  1
  F  F31  1  0.85436100  0.44669900  0.68871500  1
  F  F32  1  0.24214200  0.54367900  0.73211500  1
  F  F33  1  0.35436100  0.05330100  0.68871500  1
  F  F34  1  0.58411400  0.40403200  0.82370000  1
  F  F35  1  0.80557600  0.06172100  0.94089100  1
  F  F36  1  0.91597800  0.56211600  0.89225500  1
  F  F37  1  0.08411400  0.09596800  0.82370000  1
  F  F38  1  0.30557600  0.43827900  0.94089100  1
  F  F39  1  0.41597800  0.93788400  0.89225500  1
