# generated using pymatgen
data_Ba4Ti11O26
_symmetry_space_group_name_H-M   'P 1'
_cell_length_a   7.84610900
_cell_length_b   7.97803672
_cell_length_c   10.03883251
_cell_angle_alpha   91.86954306
_cell_angle_beta   112.97652546
_cell_angle_gamma   104.19041174
_symmetry_Int_Tables_number   1
_chemical_formula_structural   Ba4Ti11O26
_chemical_formula_sum   'Ba4 Ti11 O26'
_cell_volume   555.06263014
_cell_formula_units_Z   1
loop_
 _symmetry_equiv_pos_site_id
 _symmetry_equiv_pos_as_xyz
  1  'x, y, z'
loop_
 _atom_site_type_symbol
 _atom_site_label
 _atom_site_symmetry_multiplicity
 _atom_site_fract_x
 _atom_site_fract_y
 _atom_site_fract_z
 _atom_site_occupancy
  Ba  Ba0  1  0.91665100  0.09057300  0.77240000  1
  Ba  Ba1  1  0.40204600  0.09471800  0.77191600  1
  Ba  Ba2  1  0.08784900  0.89380500  0.20998500  1
  Ba  Ba3  1  0.56851200  0.89377000  0.21006800  1
  Ti  Ti4  1  0.35682000  0.23700100  0.09491900  1
  Ti  Ti5  1  0.85701600  0.23964800  0.09683500  1
  Ti  Ti6  1  0.05392200  0.33528900  0.44263300  1
  Ti  Ti7  1  0.55868900  0.33735300  0.44616000  1
  Ti  Ti8  1  0.25477700  0.49776600  0.78171800  1
  Ti  Ti9  1  0.77542200  0.49548200  0.78171000  1
  Ti  Ti10  1  0.24614300  0.52050400  0.22933700  1
  Ti  Ti11  1  0.74624500  0.52560000  0.23460200  1
  Ti  Ti12  1  0.95184500  0.66588700  0.56944000  1
  Ti  Ti13  1  0.44438600  0.65597100  0.56253000  1
  Ti  Ti14  1  0.63879600  0.75703600  0.90000200  1
  O  O15  1  0.26002700  0.02230800  0.00748600  1
  O  O16  1  0.75050900  0.00165200  0.00010700  1
  O  O17  1  0.93550300  0.14619500  0.29439400  1
  O  O18  1  0.43586000  0.14976400  0.29984600  1
  O  O19  1  0.12415700  0.25960600  0.61655900  1
  O  O20  1  0.62285300  0.25763700  0.61941600  1
  O  O21  1  0.29090100  0.34396800  0.91417400  1
  O  O22  1  0.79489000  0.33765300  0.91615800  1
  O  O23  1  0.12375700  0.27478900  0.11418200  1
  O  O24  1  0.62800100  0.27496800  0.11364800  1
  O  O25  1  0.31856300  0.40293000  0.43635600  1
  O  O26  1  0.81248100  0.39667400  0.42518400  1
  O  O27  1  0.99494300  0.50546600  0.73792000  1
  O  O28  1  0.50836600  0.51966000  0.75720900  1
  O  O29  1  0.98808600  0.47519900  0.24116100  1
  O  O30  1  0.49681500  0.48478800  0.24800700  1
  O  O31  1  0.18656800  0.59665600  0.57369400  1
  O  O32  1  0.68618800  0.59612800  0.57543100  1
  O  O33  1  0.38549300  0.71900200  0.88725500  1
  O  O34  1  0.86059700  0.71620000  0.88678100  1
  O  O35  1  0.70994100  0.66390200  0.08802300  1
  O  O36  1  0.21720300  0.66208400  0.10320400  1
  O  O37  1  0.37703400  0.73760300  0.38830300  1
  O  O38  1  0.87225300  0.72740300  0.37603400  1
  O  O39  1  0.56505900  0.85227300  0.70418000  1
  O  O40  1  0.05195300  0.87489700  0.66536400  1
