# generated using pymatgen
data_Ho6ReO12
_symmetry_space_group_name_H-M   'P 1'
_cell_length_a   9.80527212
_cell_length_b   9.80527212
_cell_length_c   9.34612809
_cell_angle_alpha   90.00000000
_cell_angle_beta   90.00000000
_cell_angle_gamma   120.00000000
_symmetry_Int_Tables_number   1
_chemical_formula_structural   Ho6ReO12
_chemical_formula_sum   'Ho18 Re3 O36'
_cell_volume   778.18286214
_cell_formula_units_Z   3
loop_
 _symmetry_equiv_pos_site_id
 _symmetry_equiv_pos_as_xyz
  1  'x, y, z'
loop_
 _atom_site_type_symbol
 _atom_site_label
 _atom_site_symmetry_multiplicity
 _atom_site_fract_x
 _atom_site_fract_y
 _atom_site_fract_z
 _atom_site_occupancy
  Ho  Ho0  1  0.95846200  0.21280300  0.35676800  1
  Ho  Ho1  1  0.21280300  0.25434100  0.64323200  1
  Ho  Ho2  1  0.74565900  0.95846200  0.64323200  1
  Ho  Ho3  1  0.25434100  0.04153800  0.35676800  1
  Ho  Ho4  1  0.78719700  0.74565900  0.35676800  1
  Ho  Ho5  1  0.04153800  0.78719700  0.64323200  1
  Ho  Ho6  1  0.62512867  0.54613633  0.69010133  1
  Ho  Ho7  1  0.87946967  0.58767433  0.97656533  1
  Ho  Ho8  1  0.41232567  0.29179533  0.97656533  1
  Ho  Ho9  1  0.92100767  0.37487133  0.69010133  1
  Ho  Ho10  1  0.45386367  0.07899233  0.69010133  1
  Ho  Ho11  1  0.70820467  0.12053033  0.97656533  1
  Ho  Ho12  1  0.29179533  0.87946967  0.02343467  1
  Ho  Ho13  1  0.54613633  0.92100767  0.30989867  1
  Ho  Ho14  1  0.07899233  0.62512867  0.30989867  1
  Ho  Ho15  1  0.58767433  0.70820467  0.02343467  1
  Ho  Ho16  1  0.12053033  0.41232567  0.02343467  1
  Ho  Ho17  1  0.37487133  0.45386367  0.30989867  1
  Re  Re18  1  0.00000000  0.00000000  0.00000000  1
  Re  Re19  1  0.66666667  0.33333333  0.33333333  1
  Re  Re20  1  0.33333333  0.66666667  0.66666667  1
  O  O21  1  0.85187667  0.37243333  0.44546633  1
  O  O22  1  0.37243333  0.52055667  0.55453367  1
  O  O23  1  0.96767433  0.19092367  0.59976567  1
  O  O24  1  0.19092367  0.22324933  0.40023433  1
  O  O25  1  0.47944333  0.85187667  0.55453367  1
  O  O26  1  0.77675067  0.96767433  0.40023433  1
  O  O27  1  0.22324933  0.03232567  0.59976567  1
  O  O28  1  0.52055667  0.14812333  0.44546633  1
  O  O29  1  0.80907633  0.77675067  0.59976567  1
  O  O30  1  0.03232567  0.80907633  0.40023433  1
  O  O31  1  0.62756667  0.47944333  0.44546633  1
  O  O32  1  0.14812333  0.62756667  0.55453367  1
  O  O33  1  0.51854333  0.70576667  0.77879967  1
  O  O34  1  0.03910000  0.85389000  0.88786700  1
  O  O35  1  0.63434100  0.52425700  0.93309900  1
  O  O36  1  0.85759033  0.55658267  0.73356767  1
  O  O37  1  0.14611000  0.18521000  0.88786700  1
  O  O38  1  0.44341733  0.30100767  0.73356767  1
  O  O39  1  0.88991600  0.36565900  0.93309900  1
  O  O40  1  0.18722333  0.48145667  0.77879967  1
  O  O41  1  0.47574300  0.11008400  0.93309900  1
  O  O42  1  0.69899233  0.14240967  0.73356767  1
  O  O43  1  0.29423333  0.81277667  0.77879967  1
  O  O44  1  0.81479000  0.96090000  0.88786700  1
  O  O45  1  0.18521000  0.03910000  0.11213300  1
  O  O46  1  0.70576667  0.18722333  0.22120033  1
  O  O47  1  0.30100767  0.85759033  0.26643233  1
  O  O48  1  0.52425700  0.88991600  0.06690100  1
  O  O49  1  0.81277667  0.51854333  0.22120033  1
  O  O50  1  0.11008400  0.63434100  0.06690100  1
  O  O51  1  0.55658267  0.69899233  0.26643233  1
  O  O52  1  0.85389000  0.81479000  0.11213300  1
  O  O53  1  0.14240967  0.44341733  0.26643233  1
  O  O54  1  0.36565900  0.47574300  0.06690100  1
  O  O55  1  0.96090000  0.14611000  0.11213300  1
  O  O56  1  0.48145667  0.29423333  0.22120033  1
