# generated using pymatgen
data_LiCuCO3
_symmetry_space_group_name_H-M   'P 1'
_cell_length_a   5.30270800
_cell_length_b   6.25337200
_cell_length_c   8.79820700
_cell_angle_alpha   90.00000000
_cell_angle_beta   90.00000000
_cell_angle_gamma   90.00000000
_symmetry_Int_Tables_number   1
_chemical_formula_structural   LiCuCO3
_chemical_formula_sum   'Li4 Cu4 C4 O12'
_cell_volume   291.74683490
_cell_formula_units_Z   4
loop_
 _symmetry_equiv_pos_site_id
 _symmetry_equiv_pos_as_xyz
  1  'x, y, z'
loop_
 _atom_site_type_symbol
 _atom_site_label
 _atom_site_symmetry_multiplicity
 _atom_site_fract_x
 _atom_site_fract_y
 _atom_site_fract_z
 _atom_site_occupancy
  Li  Li0  1  0.50000000  0.25000000  0.36211600  1
  Li  Li1  1  0.50000000  0.75000000  0.63788400  1
  Li  Li2  1  0.00000000  0.75000000  0.36211600  1
  Li  Li3  1  0.00000000  0.25000000  0.63788400  1
  Cu  Cu4  1  0.25000000  0.25000000  0.00000000  1
  Cu  Cu5  1  0.25000000  0.75000000  0.00000000  1
  Cu  Cu6  1  0.75000000  0.75000000  0.00000000  1
  Cu  Cu7  1  0.75000000  0.25000000  0.00000000  1
  C  C8  1  0.50000000  0.75000000  0.28379700  1
  C  C9  1  0.50000000  0.25000000  0.71620300  1
  C  C10  1  0.00000000  0.25000000  0.28379700  1
  C  C11  1  0.00000000  0.75000000  0.71620300  1
  O  O12  1  0.71665800  0.75000000  0.21037200  1
  O  O13  1  0.50000000  0.75000000  0.42663300  1
  O  O14  1  0.28334200  0.75000000  0.21037200  1
  O  O15  1  0.28334200  0.25000000  0.78962800  1
  O  O16  1  0.50000000  0.25000000  0.57336700  1
  O  O17  1  0.71665800  0.25000000  0.78962800  1
  O  O18  1  0.21665800  0.25000000  0.21037200  1
  O  O19  1  0.00000000  0.25000000  0.42663300  1
  O  O20  1  0.78334200  0.25000000  0.21037200  1
  O  O21  1  0.78334200  0.75000000  0.78962800  1
  O  O22  1  0.00000000  0.75000000  0.57336700  1
  O  O23  1  0.21665800  0.75000000  0.78962800  1
