# generated using pymatgen
data_La2SiO5
_symmetry_space_group_name_H-M   'P 1'
_cell_length_a   11.62152000
_cell_length_b   11.85490000
_cell_length_c   11.79375435
_cell_angle_alpha   90.00000000
_cell_angle_beta   98.40740878
_cell_angle_gamma   90.00000000
_symmetry_Int_Tables_number   1
_chemical_formula_structural   La2SiO5
_chemical_formula_sum   'La24 Si12 O60'
_cell_volume   1607.38708081
_cell_formula_units_Z   12
loop_
 _symmetry_equiv_pos_site_id
 _symmetry_equiv_pos_as_xyz
  1  'x, y, z'
loop_
 _atom_site_type_symbol
 _atom_site_label
 _atom_site_symmetry_multiplicity
 _atom_site_fract_x
 _atom_site_fract_y
 _atom_site_fract_z
 _atom_site_occupancy
  La  La0  1  0.35790050  0.64387450  0.06865000  1
  La  La1  1  0.35790050  0.35612550  0.56865000  1
  La  La2  1  0.19033900  0.83001800  0.25508700  1
  La  La3  1  0.19033900  0.16998200  0.75508700  1
  La  La4  1  0.52423450  0.13888150  0.42968900  1
  La  La5  1  0.47576550  0.13888150  0.07031100  1
  La  La6  1  0.52423450  0.86111850  0.92968900  1
  La  La7  1  0.47576550  0.86111850  0.57031100  1
  La  La8  1  0.80966100  0.83001800  0.24491300  1
  La  La9  1  0.80966100  0.16998200  0.74491300  1
  La  La10  1  0.64209950  0.64387450  0.43135000  1
  La  La11  1  0.64209950  0.35612550  0.93135000  1
  La  La12  1  0.85790050  0.14387450  0.06865000  1
  La  La13  1  0.85790050  0.85612550  0.56865000  1
  La  La14  1  0.69033900  0.33001800  0.25508700  1
  La  La15  1  0.69033900  0.66998200  0.75508700  1
  La  La16  1  0.02423450  0.63888150  0.42968900  1
  La  La17  1  0.97576550  0.63888150  0.07031100  1
  La  La18  1  0.02423450  0.36111850  0.92968900  1
  La  La19  1  0.97576550  0.36111850  0.57031100  1
  La  La20  1  0.30966100  0.33001800  0.24491300  1
  La  La21  1  0.30966100  0.66998200  0.74491300  1
  La  La22  1  0.14209950  0.14387450  0.43135000  1
  La  La23  1  0.14209950  0.85612550  0.93135000  1
  Si  Si24  1  0.82961250  0.09832950  0.44850600  1
  Si  Si25  1  0.82961250  0.90167050  0.94850600  1
  Si  Si26  1  0.50000000  0.86771000  0.25000000  1
  Si  Si27  1  0.50000000  0.13229000  0.75000000  1
  Si  Si28  1  0.17038750  0.09832950  0.05149400  1
  Si  Si29  1  0.17038750  0.90167050  0.55149400  1
  Si  Si30  1  0.32961250  0.59832950  0.44850600  1
  Si  Si31  1  0.32961250  0.40167050  0.94850600  1
  Si  Si32  1  0.00000000  0.36771000  0.25000000  1
  Si  Si33  1  0.00000000  0.63229000  0.75000000  1
  Si  Si34  1  0.67038750  0.59832950  0.05149400  1
  Si  Si35  1  0.67038750  0.40167050  0.55149400  1
  O  O36  1  0.85524550  0.98008150  0.38211900  1
  O  O37  1  0.85524550  0.01991850  0.88211900  1
  O  O38  1  0.79786350  0.94668550  0.07479100  1
  O  O39  1  0.79786350  0.05331450  0.57479100  1
  O  O40  1  0.71647000  0.16629300  0.38161800  1
  O  O41  1  0.66645800  0.21802800  0.07682200  1
  O  O42  1  0.71647000  0.83370700  0.88161800  1
  O  O43  1  0.66645800  0.78197200  0.57682200  1
  O  O44  1  0.61566950  0.78549750  0.28188400  1
  O  O45  1  0.61566950  0.21450250  0.78188400  1
  O  O46  1  0.55514400  0.68063400  0.03089200  1
  O  O47  1  0.51272900  0.94520300  0.13459100  1
  O  O48  1  0.55514400  0.31936600  0.53089200  1
  O  O49  1  0.50000000  0.24274700  0.25000000  1
  O  O50  1  0.51272900  0.05479700  0.63459100  1
  O  O51  1  0.48727100  0.94520300  0.36540900  1
  O  O52  1  0.50000000  0.75725300  0.75000000  1
  O  O53  1  0.44485600  0.68063400  0.46910800  1
  O  O54  1  0.48727100  0.05479700  0.86540900  1
  O  O55  1  0.44485600  0.31936600  0.96910800  1
  O  O56  1  0.38433050  0.78549750  0.21811600  1
  O  O57  1  0.38433050  0.21450250  0.71811600  1
  O  O58  1  0.33354200  0.21802800  0.42317800  1
  O  O59  1  0.28353000  0.16629300  0.11838200  1
  O  O60  1  0.33354200  0.78197200  0.92317800  1
  O  O61  1  0.28353000  0.83370700  0.61838200  1
  O  O62  1  0.20213650  0.94668550  0.42520900  1
  O  O63  1  0.20213650  0.05331450  0.92520900  1
  O  O64  1  0.14475450  0.98008150  0.11788100  1
  O  O65  1  0.14475450  0.01991850  0.61788100  1
  O  O66  1  0.35524550  0.48008150  0.38211900  1
  O  O67  1  0.35524550  0.51991850  0.88211900  1
  O  O68  1  0.29786350  0.44668550  0.07479100  1
  O  O69  1  0.29786350  0.55331450  0.57479100  1
  O  O70  1  0.21647000  0.66629300  0.38161800  1
  O  O71  1  0.16645800  0.71802800  0.07682200  1
  O  O72  1  0.21647000  0.33370700  0.88161800  1
  O  O73  1  0.16645800  0.28197200  0.57682200  1
  O  O74  1  0.11566950  0.28549750  0.28188400  1
  O  O75  1  0.11566950  0.71450250  0.78188400  1
  O  O76  1  0.05514400  0.18063400  0.03089200  1
  O  O77  1  0.01272900  0.44520300  0.13459100  1
  O  O78  1  0.05514400  0.81936600  0.53089200  1
  O  O79  1  0.00000000  0.74274700  0.25000000  1
  O  O80  1  0.01272900  0.55479700  0.63459100  1
  O  O81  1  0.98727100  0.44520300  0.36540900  1
  O  O82  1  0.00000000  0.25725300  0.75000000  1
  O  O83  1  0.94485600  0.18063400  0.46910800  1
  O  O84  1  0.98727100  0.55479700  0.86540900  1
  O  O85  1  0.94485600  0.81936600  0.96910800  1
  O  O86  1  0.88433050  0.28549750  0.21811600  1
  O  O87  1  0.88433050  0.71450250  0.71811600  1
  O  O88  1  0.83354200  0.71802800  0.42317800  1
  O  O89  1  0.78353000  0.66629300  0.11838200  1
  O  O90  1  0.83354200  0.28197200  0.92317800  1
  O  O91  1  0.78353000  0.33370700  0.61838200  1
  O  O92  1  0.70213650  0.44668550  0.42520900  1
  O  O93  1  0.70213650  0.55331450  0.92520900  1
  O  O94  1  0.64475450  0.48008150  0.11788100  1
  O  O95  1  0.64475450  0.51991850  0.61788100  1
