# generated using pymatgen
data_Ti7Sn3O20
_symmetry_space_group_name_H-M   'P 1'
_cell_length_a   6.65701000
_cell_length_b   6.65761800
_cell_length_c   15.28502000
_cell_angle_alpha   90.00000000
_cell_angle_beta   90.00000000
_cell_angle_gamma   90.00000000
_symmetry_Int_Tables_number   1
_chemical_formula_structural   Ti7Sn3O20
_chemical_formula_sum   'Ti14 Sn6 O40'
_cell_volume   677.42948187
_cell_formula_units_Z   2
loop_
 _symmetry_equiv_pos_site_id
 _symmetry_equiv_pos_as_xyz
  1  'x, y, z'
loop_
 _atom_site_type_symbol
 _atom_site_label
 _atom_site_symmetry_multiplicity
 _atom_site_fract_x
 _atom_site_fract_y
 _atom_site_fract_z
 _atom_site_occupancy
  Ti  Ti0  1  0.00000000  0.00000000  0.20166200  1
  Ti  Ti1  1  0.00000000  0.00000000  0.79833800  1
  Ti  Ti2  1  0.00000000  0.00000000  0.40305500  1
  Ti  Ti3  1  0.00000000  0.00000000  0.59694500  1
  Ti  Ti4  1  0.50000000  0.00000000  0.50000000  1
  Ti  Ti5  1  0.50000000  0.00000000  0.90062900  1
  Ti  Ti6  1  0.50000000  0.00000000  0.09937100  1
  Ti  Ti7  1  0.50000000  0.50000000  0.20166200  1
  Ti  Ti8  1  0.50000000  0.50000000  0.79833800  1
  Ti  Ti9  1  0.50000000  0.50000000  0.40305500  1
  Ti  Ti10  1  0.50000000  0.50000000  0.59694500  1
  Ti  Ti11  1  0.00000000  0.50000000  0.50000000  1
  Ti  Ti12  1  0.00000000  0.50000000  0.90062900  1
  Ti  Ti13  1  0.00000000  0.50000000  0.09937100  1
  Sn  Sn14  1  0.00000000  0.00000000  0.00000000  1
  Sn  Sn15  1  0.50000000  0.00000000  0.29967300  1
  Sn  Sn16  1  0.50000000  0.00000000  0.70032700  1
  Sn  Sn17  1  0.50000000  0.50000000  0.00000000  1
  Sn  Sn18  1  0.00000000  0.50000000  0.29967300  1
  Sn  Sn19  1  0.00000000  0.50000000  0.70032700  1
  O  O20  1  0.20026000  0.00000000  0.89522400  1
  O  O21  1  0.18689700  0.00000000  0.30143900  1
  O  O22  1  0.20026000  0.00000000  0.10477600  1
  O  O23  1  0.19354100  0.00000000  0.50000000  1
  O  O24  1  0.18689700  0.00000000  0.69856100  1
  O  O25  1  0.50000000  0.79933500  0.80434600  1
  O  O26  1  0.50000000  0.81313000  0.00000000  1
  O  O27  1  0.50000000  0.80065200  0.59465000  1
  O  O28  1  0.50000000  0.79933500  0.19565400  1
  O  O29  1  0.50000000  0.80065200  0.40535000  1
  O  O30  1  0.50000000  0.20066500  0.80434600  1
  O  O31  1  0.50000000  0.18687000  0.00000000  1
  O  O32  1  0.50000000  0.20066500  0.19565400  1
  O  O33  1  0.50000000  0.19934800  0.40535000  1
  O  O34  1  0.50000000  0.19934800  0.59465000  1
  O  O35  1  0.79974000  0.00000000  0.89522400  1
  O  O36  1  0.81310300  0.00000000  0.30143900  1
  O  O37  1  0.80645900  0.00000000  0.50000000  1
  O  O38  1  0.79974000  0.00000000  0.10477600  1
  O  O39  1  0.81310300  0.00000000  0.69856100  1
  O  O40  1  0.70026000  0.50000000  0.89522400  1
  O  O41  1  0.68689700  0.50000000  0.30143900  1
  O  O42  1  0.70026000  0.50000000  0.10477600  1
  O  O43  1  0.69354100  0.50000000  0.50000000  1
  O  O44  1  0.68689700  0.50000000  0.69856100  1
  O  O45  1  0.00000000  0.29933500  0.80434600  1
  O  O46  1  0.00000000  0.31313000  0.00000000  1
  O  O47  1  0.00000000  0.30065200  0.59465000  1
  O  O48  1  0.00000000  0.29933500  0.19565400  1
  O  O49  1  0.00000000  0.30065200  0.40535000  1
  O  O50  1  0.00000000  0.70066500  0.80434600  1
  O  O51  1  0.00000000  0.68687000  0.00000000  1
  O  O52  1  0.00000000  0.70066500  0.19565400  1
  O  O53  1  0.00000000  0.69934800  0.40535000  1
  O  O54  1  0.00000000  0.69934800  0.59465000  1
  O  O55  1  0.29974000  0.50000000  0.89522400  1
  O  O56  1  0.31310300  0.50000000  0.30143900  1
  O  O57  1  0.30645900  0.50000000  0.50000000  1
  O  O58  1  0.29974000  0.50000000  0.10477600  1
  O  O59  1  0.31310300  0.50000000  0.69856100  1
