# generated using pymatgen
data_SrCrO3
_symmetry_space_group_name_H-M   'P 1'
_cell_length_a   5.53153800
_cell_length_b   9.63591453
_cell_length_c   13.68560731
_cell_angle_alpha   90.00000000
_cell_angle_beta   90.00000000
_cell_angle_gamma   90.00000000
_symmetry_Int_Tables_number   1
_chemical_formula_structural   SrCrO3
_chemical_formula_sum   'Sr12 Cr12 O36'
_cell_volume   729.46240457
_cell_formula_units_Z   12
loop_
 _symmetry_equiv_pos_site_id
 _symmetry_equiv_pos_as_xyz
  1  'x, y, z'
loop_
 _atom_site_type_symbol
 _atom_site_label
 _atom_site_symmetry_multiplicity
 _atom_site_fract_x
 _atom_site_fract_y
 _atom_site_fract_z
 _atom_site_occupancy
  Sr  Sr0  1  0.99941200  0.66672600  0.59298850  1
  Sr  Sr1  1  0.50302700  0.49990800  0.75000000  1
  Sr  Sr2  1  0.50302700  0.50009200  0.25000000  1
  Sr  Sr3  1  0.99941200  0.66672600  0.90701150  1
  Sr  Sr4  1  0.49941200  0.83327400  0.09298850  1
  Sr  Sr5  1  0.49941200  0.83327400  0.40701150  1
  Sr  Sr6  1  0.49941200  0.16672600  0.59298850  1
  Sr  Sr7  1  0.00302700  0.99990800  0.75000000  1
  Sr  Sr8  1  0.00302700  0.00009200  0.25000000  1
  Sr  Sr9  1  0.49941200  0.16672600  0.90701150  1
  Sr  Sr10  1  0.99941200  0.33327400  0.09298850  1
  Sr  Sr11  1  0.99941200  0.33327400  0.40701150  1
  Cr  Cr12  1  0.00751200  0.66839600  0.34491250  1
  Cr  Cr13  1  0.00508900  0.00000000  0.50000000  1
  Cr  Cr14  1  0.00508900  0.00000000  0.00000000  1
  Cr  Cr15  1  0.00751200  0.66839600  0.15508750  1
  Cr  Cr16  1  0.50751200  0.83160400  0.65508750  1
  Cr  Cr17  1  0.50751200  0.83160400  0.84491250  1
  Cr  Cr18  1  0.50751200  0.16839600  0.34491250  1
  Cr  Cr19  1  0.50508900  0.50000000  0.50000000  1
  Cr  Cr20  1  0.50508900  0.50000000  0.00000000  1
  Cr  Cr21  1  0.50751200  0.16839600  0.15508750  1
  Cr  Cr22  1  0.00751200  0.33160400  0.65508750  1
  Cr  Cr23  1  0.00751200  0.33160400  0.84491250  1
  O  O24  1  0.73888700  0.57994000  0.08109350  1
  O  O25  1  0.73888700  0.57994000  0.41890650  1
  O  O26  1  0.77129500  0.74115800  0.25000000  1
  O  O27  1  0.99430900  0.83045900  0.08241850  1
  O  O28  1  0.99430900  0.83045900  0.41758150  1
  O  O29  1  0.99943650  0.51411950  0.25000000  1
  O  O30  1  0.23935050  0.74520650  0.25000000  1
  O  O31  1  0.24761750  0.58040550  0.08141250  1
  O  O32  1  0.24761750  0.58040550  0.41858750  1
  O  O33  1  0.23888700  0.92006000  0.58109350  1
  O  O34  1  0.23888700  0.92006000  0.91890650  1
  O  O35  1  0.27129500  0.75884200  0.75000000  1
  O  O36  1  0.49943650  0.98588050  0.75000000  1
  O  O37  1  0.49430900  0.66954100  0.58241850  1
  O  O38  1  0.49430900  0.66954100  0.91758150  1
  O  O39  1  0.73935050  0.75479350  0.75000000  1
  O  O40  1  0.74761750  0.91959450  0.91858750  1
  O  O41  1  0.74761750  0.91959450  0.58141250  1
  O  O42  1  0.23888700  0.07994000  0.08109350  1
  O  O43  1  0.23888700  0.07994000  0.41890650  1
  O  O44  1  0.27129500  0.24115800  0.25000000  1
  O  O45  1  0.49430900  0.33045900  0.08241850  1
  O  O46  1  0.49430900  0.33045900  0.41758150  1
  O  O47  1  0.49943650  0.01411950  0.25000000  1
  O  O48  1  0.73935050  0.24520650  0.25000000  1
  O  O49  1  0.74761750  0.08040550  0.08141250  1
  O  O50  1  0.74761750  0.08040550  0.41858750  1
  O  O51  1  0.73888700  0.42006000  0.58109350  1
  O  O52  1  0.73888700  0.42006000  0.91890650  1
  O  O53  1  0.77129500  0.25884200  0.75000000  1
  O  O54  1  0.99943650  0.48588050  0.75000000  1
  O  O55  1  0.99430900  0.16954100  0.58241850  1
  O  O56  1  0.99430900  0.16954100  0.91758150  1
  O  O57  1  0.23935050  0.25479350  0.75000000  1
  O  O58  1  0.24761750  0.41959450  0.91858750  1
  O  O59  1  0.24761750  0.41959450  0.58141250  1
