# generated using pymatgen
data_Li7Ti12NbO30
_symmetry_space_group_name_H-M   'P 1'
_cell_length_a   5.14079567
_cell_length_b   5.14079567
_cell_length_c   70.70285049
_cell_angle_alpha   90.00000000
_cell_angle_beta   90.00000000
_cell_angle_gamma   120.00000000
_symmetry_Int_Tables_number   1
_chemical_formula_structural   Li7Ti12NbO30
_chemical_formula_sum   'Li21 Ti36 Nb3 O90'
_cell_volume   1618.18525321
_cell_formula_units_Z   3
loop_
 _symmetry_equiv_pos_site_id
 _symmetry_equiv_pos_as_xyz
  1  'x, y, z'
loop_
 _atom_site_type_symbol
 _atom_site_label
 _atom_site_symmetry_multiplicity
 _atom_site_fract_x
 _atom_site_fract_y
 _atom_site_fract_z
 _atom_site_occupancy
  Li  Li0  1  0.00000000  0.00000000  0.02584200  1
  Li  Li1  1  0.00000000  0.00000000  0.24570200  1
  Li  Li2  1  0.33333333  0.66666667  0.27507967  1
  Li  Li3  1  0.33333333  0.66666667  0.05756567  1
  Li  Li4  1  0.33333333  0.66666667  0.19292167  1
  Li  Li5  1  0.66666667  0.33333333  0.30717233  1
  Li  Li6  1  0.66666667  0.33333333  0.22344533  1
  Li  Li7  1  0.66666667  0.33333333  0.35917533  1
  Li  Li8  1  0.66666667  0.33333333  0.57903533  1
  Li  Li9  1  0.00000000  0.00000000  0.60841300  1
  Li  Li10  1  0.00000000  0.00000000  0.39089900  1
  Li  Li11  1  0.00000000  0.00000000  0.52625500  1
  Li  Li12  1  0.33333333  0.66666667  0.64050567  1
  Li  Li13  1  0.33333333  0.66666667  0.55677867  1
  Li  Li14  1  0.33333333  0.66666667  0.69250867  1
  Li  Li15  1  0.33333333  0.66666667  0.91236867  1
  Li  Li16  1  0.66666667  0.33333333  0.94174633  1
  Li  Li17  1  0.66666667  0.33333333  0.72423233  1
  Li  Li18  1  0.66666667  0.33333333  0.85958833  1
  Li  Li19  1  0.00000000  0.00000000  0.97383900  1
  Li  Li20  1  0.00000000  0.00000000  0.89011200  1
  Ti  Ti21  1  0.00000000  0.00000000  0.10492800  1
  Ti  Ti22  1  0.00000000  0.00000000  0.16205400  1
  Ti  Ti23  1  0.00000000  0.00000000  0.20383800  1
  Ti  Ti24  1  0.00000000  0.00000000  0.06505200  1
  Ti  Ti25  1  0.00000000  0.00000000  0.29601300  1
  Ti  Ti26  1  0.33333333  0.66666667  0.32883167  1
  Ti  Ti27  1  0.33333333  0.66666667  0.00486967  1
  Ti  Ti28  1  0.33333333  0.66666667  0.09911567  1
  Ti  Ti29  1  0.33333333  0.66666667  0.23288567  1
  Ti  Ti30  1  0.66666667  0.33333333  0.03772533  1
  Ti  Ti31  1  0.66666667  0.33333333  0.13105733  1
  Ti  Ti32  1  0.66666667  0.33333333  0.17138733  1
  Ti  Ti33  1  0.66666667  0.33333333  0.43826133  1
  Ti  Ti34  1  0.66666667  0.33333333  0.49538733  1
  Ti  Ti35  1  0.66666667  0.33333333  0.53717133  1
  Ti  Ti36  1  0.66666667  0.33333333  0.39838533  1
  Ti  Ti37  1  0.66666667  0.33333333  0.62934633  1
  Ti  Ti38  1  0.00000000  0.00000000  0.66216500  1
  Ti  Ti39  1  0.00000000  0.00000000  0.33820300  1
  Ti  Ti40  1  0.00000000  0.00000000  0.43244900  1
  Ti  Ti41  1  0.00000000  0.00000000  0.56621900  1
  Ti  Ti42  1  0.33333333  0.66666667  0.37105867  1
  Ti  Ti43  1  0.33333333  0.66666667  0.46439067  1
  Ti  Ti44  1  0.33333333  0.66666667  0.50472067  1
  Ti  Ti45  1  0.33333333  0.66666667  0.77159467  1
  Ti  Ti46  1  0.33333333  0.66666667  0.82872067  1
  Ti  Ti47  1  0.33333333  0.66666667  0.87050467  1
  Ti  Ti48  1  0.33333333  0.66666667  0.73171867  1
  Ti  Ti49  1  0.33333333  0.66666667  0.96267967  1
  Ti  Ti50  1  0.66666667  0.33333333  0.99549833  1
  Ti  Ti51  1  0.66666667  0.33333333  0.67153633  1
  Ti  Ti52  1  0.66666667  0.33333333  0.76578233  1
  Ti  Ti53  1  0.66666667  0.33333333  0.89955233  1
  Ti  Ti54  1  0.00000000  0.00000000  0.70439200  1
  Ti  Ti55  1  0.00000000  0.00000000  0.79772400  1
  Ti  Ti56  1  0.00000000  0.00000000  0.83805400  1
  Nb  Nb57  1  0.66666667  0.33333333  0.26542733  1
  Nb  Nb58  1  0.33333333  0.66666667  0.59876067  1
  Nb  Nb59  1  0.00000000  0.00000000  0.93209400  1
  O  O60  1  0.27825667  0.96669333  0.31753133  1
  O  O61  1  0.70953367  0.67525133  0.05002933  1
  O  O62  1  0.03330667  0.31156333  0.31753133  1
  O  O63  1  0.72171800  0.68763300  0.18301000  1
  O  O64  1  0.68843667  0.72174333  0.31753133  1
  O  O65  1  0.61993500  0.62476600  0.24988100  1
  O  O66  1  0.66313233  0.65884667  0.11622967  1
  O  O67  1  0.35629333  0.27400367  0.15011067  1
  O  O68  1  0.33807900  0.29851000  0.28367800  1
  O  O69  1  0.67816600  0.92088800  0.08478800  1
  O  O70  1  0.66273767  0.95346633  0.21701733  1
  O  O71  1  0.70149000  0.03956900  0.28367800  1
  O  O72  1  0.72599633  0.08228967  0.15011067  1
  O  O73  1  0.29072867  0.33726233  0.21701733  1
  O  O74  1  0.24272200  0.32183400  0.08478800  1
  O  O75  1  0.37523400  0.99516900  0.24988100  1
  O  O76  1  0.34115333  0.00428567  0.11622967  1
  O  O77  1  0.96591500  0.27828200  0.18301000  1
  O  O78  1  0.96571767  0.29046633  0.05002933  1
  O  O79  1  0.99571433  0.33686767  0.11622967  1
  O  O80  1  0.00483100  0.38006500  0.24988100  1
  O  O81  1  0.32474867  0.03428233  0.05002933  1
  O  O82  1  0.31236700  0.03408500  0.18301000  1
  O  O83  1  0.04653367  0.70927133  0.21701733  1
  O  O84  1  0.07911200  0.75727800  0.08478800  1
  O  O85  1  0.97823133  0.60982067  0.01652567  1
  O  O86  1  0.91771033  0.64370667  0.15011067  1
  O  O87  1  0.63158933  0.02176867  0.01652567  1
  O  O88  1  0.96043100  0.66192100  0.28367800  1
  O  O89  1  0.39017933  0.36841067  0.01652567  1
  O  O90  1  0.94492333  0.30002667  0.65086467  1
  O  O91  1  0.37620033  0.00858467  0.38336267  1
  O  O92  1  0.69997333  0.64489667  0.65086467  1
  O  O93  1  0.38838467  0.02096633  0.51634333  1
  O  O94  1  0.35510333  0.05507667  0.65086467  1
  O  O95  1  0.28660167  0.95809933  0.58321433  1
  O  O96  1  0.32979900  0.99218000  0.44956300  1
  O  O97  1  0.02296000  0.60733700  0.48344400  1
  O  O98  1  0.00474567  0.63184333  0.61701133  1
  O  O99  1  0.34483267  0.25422133  0.41812133  1
  O  O100  1  0.32940433  0.28679967  0.55035067  1
  O  O101  1  0.36815667  0.37290233  0.61701133  1
  O  O102  1  0.39266300  0.41562300  0.48344400  1
  O  O103  1  0.95739533  0.67059567  0.55035067  1
  O  O104  1  0.90938867  0.65516733  0.41812133  1
  O  O105  1  0.04190067  0.32850233  0.58321433  1
  O  O106  1  0.00782000  0.33761900  0.44956300  1
  O  O107  1  0.63258167  0.61161533  0.51634333  1
  O  O108  1  0.63238433  0.62379967  0.38336267  1
  O  O109  1  0.66238100  0.67020100  0.44956300  1
  O  O110  1  0.67149767  0.71339833  0.58321433  1
  O  O111  1  0.99141533  0.36761567  0.38336267  1
  O  O112  1  0.97903367  0.36741833  0.51634333  1
  O  O113  1  0.71320033  0.04260467  0.55035067  1
  O  O114  1  0.74577867  0.09061133  0.41812133  1
  O  O115  1  0.64489800  0.94315400  0.34985900  1
  O  O116  1  0.58437700  0.97704000  0.48344400  1
  O  O117  1  0.29825600  0.35510200  0.34985900  1
  O  O118  1  0.62709767  0.99525433  0.61701133  1
  O  O119  1  0.05684600  0.70174400  0.34985900  1
  O  O120  1  0.61159000  0.63336000  0.98419800  1
  O  O121  1  0.04286700  0.34191800  0.71669600  1
  O  O122  1  0.36664000  0.97823000  0.98419800  1
  O  O123  1  0.05505133  0.35429967  0.84967667  1
  O  O124  1  0.02177000  0.38841000  0.98419800  1
  O  O125  1  0.95326833  0.29143267  0.91654767  1
  O  O126  1  0.99646567  0.32551333  0.78289633  1
  O  O127  1  0.68962667  0.94067033  0.81677733  1
  O  O128  1  0.67141233  0.96517667  0.95034467  1
  O  O129  1  0.01149933  0.58755467  0.75145467  1
  O  O130  1  0.99607100  0.62013300  0.88368400  1
  O  O131  1  0.03482333  0.70623567  0.95034467  1
  O  O132  1  0.05932967  0.74895633  0.81677733  1
  O  O133  1  0.62406200  0.00392900  0.88368400  1
  O  O134  1  0.57605533  0.98850067  0.75145467  1
  O  O135  1  0.70856733  0.66183567  0.91654767  1
  O  O136  1  0.67448667  0.67095233  0.78289633  1
  O  O137  1  0.29924833  0.94494867  0.84967667  1
  O  O138  1  0.29905100  0.95713300  0.71669600  1
  O  O139  1  0.32904767  0.00353433  0.78289633  1
  O  O140  1  0.33816433  0.04673167  0.91654767  1
  O  O141  1  0.65808200  0.70094900  0.71669600  1
  O  O142  1  0.64570033  0.70075167  0.84967667  1
  O  O143  1  0.37986700  0.37593800  0.88368400  1
  O  O144  1  0.41244533  0.42394467  0.75145467  1
  O  O145  1  0.31156467  0.27648733  0.68319233  1
  O  O146  1  0.25104367  0.31037333  0.81677733  1
  O  O147  1  0.96492267  0.68843533  0.68319233  1
  O  O148  1  0.29376433  0.32858767  0.95034467  1
  O  O149  1  0.72351267  0.03507733  0.68319233  1
