# generated using pymatgen
data_Ti17(NO4)6
_symmetry_space_group_name_H-M   'P 1'
_cell_length_a   9.67863000
_cell_length_b   11.46515800
_cell_length_c   20.06791900
_cell_angle_alpha   90.00000000
_cell_angle_beta   90.00000000
_cell_angle_gamma   90.00000000
_symmetry_Int_Tables_number   1
_chemical_formula_structural   Ti17(NO4)6
_chemical_formula_sum   'Ti68 N24 O96'
_cell_volume   2226.87721265
_cell_formula_units_Z   4
loop_
 _symmetry_equiv_pos_site_id
 _symmetry_equiv_pos_as_xyz
  1  'x, y, z'
loop_
 _atom_site_type_symbol
 _atom_site_label
 _atom_site_symmetry_multiplicity
 _atom_site_fract_x
 _atom_site_fract_y
 _atom_site_fract_z
 _atom_site_occupancy
  Ti  Ti0  1  0.47264500  0.83327300  0.09648700  1
  Ti  Ti1  1  0.19171350  0.82949450  0.66359000  1
  Ti  Ti2  1  0.19171350  0.82949450  0.83641000  1
  Ti  Ti3  1  0.47215550  0.83304150  0.58778400  1
  Ti  Ti4  1  0.47264500  0.83327300  0.40351300  1
  Ti  Ti5  1  0.47215550  0.83304150  0.91221600  1
  Ti  Ti6  1  0.19859550  0.83311350  0.15874300  1
  Ti  Ti7  1  0.19859550  0.83311350  0.34125700  1
  Ti  Ti8  1  0.02988950  0.00235150  0.75000000  1
  Ti  Ti9  1  0.02988950  0.99764850  0.25000000  1
  Ti  Ti10  1  0.63741400  0.00000000  0.00000000  1
  Ti  Ti11  1  0.63741400  0.00000000  0.50000000  1
  Ti  Ti12  1  0.19859550  0.16688650  0.84125700  1
  Ti  Ti13  1  0.52973200  0.16896100  0.25000000  1
  Ti  Ti14  1  0.47215550  0.16695850  0.08778400  1
  Ti  Ti15  1  0.47264500  0.16672700  0.90351300  1
  Ti  Ti16  1  0.47215550  0.16695850  0.41221600  1
  Ti  Ti17  1  0.19171350  0.17050550  0.33641000  1
  Ti  Ti18  1  0.19171350  0.17050550  0.16359000  1
  Ti  Ti19  1  0.19859550  0.16688650  0.65874300  1
  Ti  Ti20  1  0.47264500  0.16672700  0.59648700  1
  Ti  Ti21  1  0.63577700  0.66798900  0.00051200  1
  Ti  Ti22  1  0.63577700  0.66798900  0.49948800  1
  Ti  Ti23  1  0.63577700  0.33201100  0.50051200  1
  Ti  Ti24  1  0.63577700  0.33201100  0.99948800  1
  Ti  Ti25  1  0.52973200  0.83103900  0.75000000  1
  Ti  Ti26  1  0.97238050  0.99996750  0.41107000  1
  Ti  Ti27  1  0.97238050  0.00003250  0.91107000  1
  Ti  Ti28  1  0.69094150  0.99648050  0.16348700  1
  Ti  Ti29  1  0.97238050  0.99996750  0.08893000  1
  Ti  Ti30  1  0.69094150  0.99648050  0.33651300  1
  Ti  Ti31  1  0.97238050  0.00003250  0.58893000  1
  Ti  Ti32  1  0.69094150  0.00351950  0.83651300  1
  Ti  Ti33  1  0.69094150  0.00351950  0.66348700  1
  Ti  Ti34  1  0.97264500  0.33327300  0.09648700  1
  Ti  Ti35  1  0.69171350  0.32949450  0.66359000  1
  Ti  Ti36  1  0.69171350  0.32949450  0.83641000  1
  Ti  Ti37  1  0.97215550  0.33304150  0.58778400  1
  Ti  Ti38  1  0.97264500  0.33327300  0.40351300  1
  Ti  Ti39  1  0.97215550  0.33304150  0.91221600  1
  Ti  Ti40  1  0.69859550  0.33311350  0.15874300  1
  Ti  Ti41  1  0.69859550  0.33311350  0.34125700  1
  Ti  Ti42  1  0.52988950  0.50235150  0.75000000  1
  Ti  Ti43  1  0.52988950  0.49764850  0.25000000  1
  Ti  Ti44  1  0.13741400  0.50000000  0.00000000  1
  Ti  Ti45  1  0.13741400  0.50000000  0.50000000  1
  Ti  Ti46  1  0.69859550  0.66688650  0.84125700  1
  Ti  Ti47  1  0.02973200  0.66896100  0.25000000  1
  Ti  Ti48  1  0.97215550  0.66695850  0.08778400  1
  Ti  Ti49  1  0.97264500  0.66672700  0.90351300  1
  Ti  Ti50  1  0.97215550  0.66695850  0.41221600  1
  Ti  Ti51  1  0.69171350  0.67050550  0.33641000  1
  Ti  Ti52  1  0.69171350  0.67050550  0.16359000  1
  Ti  Ti53  1  0.69859550  0.66688650  0.65874300  1
  Ti  Ti54  1  0.97264500  0.66672700  0.59648700  1
  Ti  Ti55  1  0.13577700  0.16798900  0.00051200  1
  Ti  Ti56  1  0.13577700  0.16798900  0.49948800  1
  Ti  Ti57  1  0.13577700  0.83201100  0.50051200  1
  Ti  Ti58  1  0.13577700  0.83201100  0.99948800  1
  Ti  Ti59  1  0.02973200  0.33103900  0.75000000  1
  Ti  Ti60  1  0.47238050  0.49996750  0.41107000  1
  Ti  Ti61  1  0.47238050  0.50003250  0.91107000  1
  Ti  Ti62  1  0.19094150  0.49648050  0.16348700  1
  Ti  Ti63  1  0.47238050  0.49996750  0.08893000  1
  Ti  Ti64  1  0.19094150  0.49648050  0.33651300  1
  Ti  Ti65  1  0.47238050  0.50003250  0.58893000  1
  Ti  Ti66  1  0.19094150  0.50351950  0.83651300  1
  Ti  Ti67  1  0.19094150  0.50351950  0.66348700  1
  N  N68  1  0.06386100  0.00000000  0.00000000  1
  N  N69  1  0.06386100  0.00000000  0.50000000  1
  N  N70  1  0.61279650  0.01299450  0.25000000  1
  N  N71  1  0.61279650  0.98700550  0.75000000  1
  N  N72  1  0.56326400  0.16511700  0.99951700  1
  N  N73  1  0.61280650  0.65351050  0.25000000  1
  N  N74  1  0.56326400  0.16511700  0.50048300  1
  N  N75  1  0.60372100  0.66663400  0.75000000  1
  N  N76  1  0.60372100  0.33336600  0.25000000  1
  N  N77  1  0.56326400  0.83488300  0.49951700  1
  N  N78  1  0.61280650  0.34648950  0.75000000  1
  N  N79  1  0.56326400  0.83488300  0.00048300  1
  N  N80  1  0.56386100  0.50000000  0.00000000  1
  N  N81  1  0.56386100  0.50000000  0.50000000  1
  N  N82  1  0.11279650  0.51299450  0.25000000  1
  N  N83  1  0.11279650  0.48700550  0.75000000  1
  N  N84  1  0.06326400  0.66511700  0.99951700  1
  N  N85  1  0.11280650  0.15351050  0.25000000  1
  N  N86  1  0.06326400  0.66511700  0.50048300  1
  N  N87  1  0.10372100  0.16663400  0.75000000  1
  N  N88  1  0.10372100  0.83336600  0.25000000  1
  N  N89  1  0.06326400  0.33488300  0.49951700  1
  N  N90  1  0.11280650  0.84648950  0.75000000  1
  N  N91  1  0.06326400  0.33488300  0.00048300  1
  O  O92  1  0.37675800  0.83382100  0.32038300  1
  O  O93  1  0.38083000  0.83278300  0.68429900  1
  O  O94  1  0.28523550  0.83637050  0.56518700  1
  O  O95  1  0.28332800  0.83275600  0.06400000  1
  O  O96  1  0.28523550  0.83637050  0.93481300  1
  O  O97  1  0.28332800  0.83275600  0.43600000  1
  O  O98  1  0.37675800  0.83382100  0.17961700  1
  O  O99  1  0.38083000  0.83278300  0.81570100  1
  O  O100  1  0.14159800  0.99864800  0.15620400  1
  O  O101  1  0.14159800  0.99864800  0.34379600  1
  O  O102  1  0.14159800  0.00135200  0.84379600  1
  O  O103  1  0.14159800  0.00135200  0.65620400  1
  O  O104  1  0.52225050  0.99984350  0.90633500  1
  O  O105  1  0.52225050  0.00015650  0.40633500  1
  O  O106  1  0.52225050  0.99984350  0.59366500  1
  O  O107  1  0.52225050  0.00015650  0.09366500  1
  O  O108  1  0.64172300  0.16801100  0.15616200  1
  O  O109  1  0.37675800  0.16617900  0.82038300  1
  O  O110  1  0.64172300  0.16801100  0.34383800  1
  O  O111  1  0.38083000  0.16721700  0.31570100  1
  O  O112  1  0.38083000  0.16721700  0.18429900  1
  O  O113  1  0.28523550  0.16362950  0.06518700  1
  O  O114  1  0.28523550  0.16362950  0.43481300  1
  O  O115  1  0.28332800  0.16724400  0.93600000  1
  O  O116  1  0.51692000  0.66713000  0.90929200  1
  O  O117  1  0.65652500  0.16657800  0.85026300  1
  O  O118  1  0.37675800  0.16617900  0.67961700  1
  O  O119  1  0.28332800  0.16724400  0.56400000  1
  O  O120  1  0.52107350  0.66711450  0.09396300  1
  O  O121  1  0.52107350  0.66711450  0.40603700  1
  O  O122  1  0.65652500  0.16657800  0.64973700  1
  O  O123  1  0.51692000  0.66713000  0.59070800  1
  O  O124  1  0.64172300  0.83198900  0.84383800  1
  O  O125  1  0.64172300  0.83198900  0.65616200  1
  O  O126  1  0.52107350  0.33288550  0.59396300  1
  O  O127  1  0.51692000  0.33287000  0.40929200  1
  O  O128  1  0.52107350  0.33288550  0.90603700  1
  O  O129  1  0.65652500  0.83342200  0.14973700  1
  O  O130  1  0.65652500  0.83342200  0.35026300  1
  O  O131  1  0.51692000  0.33287000  0.09070800  1
  O  O132  1  0.88079850  0.00082050  0.68415800  1
  O  O133  1  0.78590450  0.99656650  0.93510200  1
  O  O134  1  0.88079850  0.99917950  0.31584200  1
  O  O135  1  0.88079850  0.00082050  0.81584200  1
  O  O136  1  0.88079850  0.99917950  0.18415800  1
  O  O137  1  0.78590450  0.99656650  0.56489800  1
  O  O138  1  0.78590450  0.00343350  0.43510200  1
  O  O139  1  0.78590450  0.00343350  0.06489800  1
  O  O140  1  0.87675800  0.33382100  0.32038300  1
  O  O141  1  0.88083000  0.33278300  0.68429900  1
  O  O142  1  0.78523550  0.33637050  0.56518700  1
  O  O143  1  0.78332800  0.33275600  0.06400000  1
  O  O144  1  0.78523550  0.33637050  0.93481300  1
  O  O145  1  0.78332800  0.33275600  0.43600000  1
  O  O146  1  0.87675800  0.33382100  0.17961700  1
  O  O147  1  0.88083000  0.33278300  0.81570100  1
  O  O148  1  0.64159800  0.49864800  0.15620400  1
  O  O149  1  0.64159800  0.49864800  0.34379600  1
  O  O150  1  0.64159800  0.50135200  0.84379600  1
  O  O151  1  0.64159800  0.50135200  0.65620400  1
  O  O152  1  0.02225050  0.49984350  0.90633500  1
  O  O153  1  0.02225050  0.50015650  0.40633500  1
  O  O154  1  0.02225050  0.49984350  0.59366500  1
  O  O155  1  0.02225050  0.50015650  0.09366500  1
  O  O156  1  0.14172300  0.66801100  0.15616200  1
  O  O157  1  0.87675800  0.66617900  0.82038300  1
  O  O158  1  0.14172300  0.66801100  0.34383800  1
  O  O159  1  0.88083000  0.66721700  0.31570100  1
  O  O160  1  0.88083000  0.66721700  0.18429900  1
  O  O161  1  0.78523550  0.66362950  0.06518700  1
  O  O162  1  0.78523550  0.66362950  0.43481300  1
  O  O163  1  0.78332800  0.66724400  0.93600000  1
  O  O164  1  0.01692000  0.16713000  0.90929200  1
  O  O165  1  0.15652500  0.66657800  0.85026300  1
  O  O166  1  0.87675800  0.66617900  0.67961700  1
  O  O167  1  0.78332800  0.66724400  0.56400000  1
  O  O168  1  0.02107350  0.16711450  0.09396300  1
  O  O169  1  0.02107350  0.16711450  0.40603700  1
  O  O170  1  0.15652500  0.66657800  0.64973700  1
  O  O171  1  0.01692000  0.16713000  0.59070800  1
  O  O172  1  0.14172300  0.33198900  0.84383800  1
  O  O173  1  0.14172300  0.33198900  0.65616200  1
  O  O174  1  0.02107350  0.83288550  0.59396300  1
  O  O175  1  0.01692000  0.83287000  0.40929200  1
  O  O176  1  0.02107350  0.83288550  0.90603700  1
  O  O177  1  0.15652500  0.33342200  0.14973700  1
  O  O178  1  0.15652500  0.33342200  0.35026300  1
  O  O179  1  0.01692000  0.83287000  0.09070800  1
  O  O180  1  0.38079850  0.50082050  0.68415800  1
  O  O181  1  0.28590450  0.49656650  0.93510200  1
  O  O182  1  0.38079850  0.49917950  0.31584200  1
  O  O183  1  0.38079850  0.50082050  0.81584200  1
  O  O184  1  0.38079850  0.49917950  0.18415800  1
  O  O185  1  0.28590450  0.49656650  0.56489800  1
  O  O186  1  0.28590450  0.50343350  0.43510200  1
  O  O187  1  0.28590450  0.50343350  0.06489800  1
