# generated using pymatgen
data_SrLa2O4
_symmetry_space_group_name_H-M   'P 1'
_cell_length_a   3.64805100
_cell_length_b   10.59836400
_cell_length_c   12.55077100
_cell_angle_alpha   90.00000000
_cell_angle_beta   90.00000000
_cell_angle_gamma   90.00000000
_symmetry_Int_Tables_number   1
_chemical_formula_structural   SrLa2O4
_chemical_formula_sum   'Sr4 La8 O16'
_cell_volume   485.25513294
_cell_formula_units_Z   4
loop_
 _symmetry_equiv_pos_site_id
 _symmetry_equiv_pos_as_xyz
  1  'x, y, z'
loop_
 _atom_site_type_symbol
 _atom_site_label
 _atom_site_symmetry_multiplicity
 _atom_site_fract_x
 _atom_site_fract_y
 _atom_site_fract_z
 _atom_site_occupancy
  Sr  Sr0  1  0.75000000  0.74701700  0.14647000  1
  Sr  Sr1  1  0.25000000  0.75298300  0.64647000  1
  Sr  Sr2  1  0.75000000  0.24701700  0.35353000  1
  Sr  Sr3  1  0.25000000  0.25298300  0.85353000  1
  La  La4  1  0.75000000  0.58013600  0.38633700  1
  La  La5  1  0.75000000  0.57800600  0.88588400  1
  La  La6  1  0.25000000  0.92199400  0.38588400  1
  La  La7  1  0.25000000  0.91986400  0.88633700  1
  La  La8  1  0.75000000  0.08013600  0.11366300  1
  La  La9  1  0.75000000  0.07800600  0.61411600  1
  La  La10  1  0.25000000  0.42199400  0.11411600  1
  La  La11  1  0.25000000  0.41986400  0.61366300  1
  O  O12  1  0.25000000  0.51677200  0.78356900  1
  O  O13  1  0.75000000  0.57523600  0.57886900  1
  O  O14  1  0.25000000  0.63182900  0.02324900  1
  O  O15  1  0.25000000  0.71097400  0.30994000  1
  O  O16  1  0.75000000  0.78902600  0.80994000  1
  O  O17  1  0.75000000  0.86817100  0.52324900  1
  O  O18  1  0.25000000  0.92476400  0.07886900  1
  O  O19  1  0.75000000  0.98322800  0.28356900  1
  O  O20  1  0.25000000  0.01677200  0.71643100  1
  O  O21  1  0.75000000  0.07523600  0.92113100  1
  O  O22  1  0.25000000  0.13182900  0.47675100  1
  O  O23  1  0.25000000  0.21097400  0.19006000  1
  O  O24  1  0.75000000  0.28902600  0.69006000  1
  O  O25  1  0.75000000  0.36817100  0.97675100  1
  O  O26  1  0.25000000  0.42476400  0.42113100  1
  O  O27  1  0.75000000  0.48322800  0.21643100  1
