# generated using pymatgen
data_LiTi(PO3)4
_symmetry_space_group_name_H-M   'P 1'
_cell_length_a   7.32659400
_cell_length_b   8.44121800
_cell_length_c   7.72005193
_cell_angle_alpha   90.00000000
_cell_angle_beta   94.43843330
_cell_angle_gamma   90.00000000
_symmetry_Int_Tables_number   1
_chemical_formula_structural   LiTi(PO3)4
_chemical_formula_sum   'Li2 Ti2 P8 O24'
_cell_volume   476.01768340
_cell_formula_units_Z   2
loop_
 _symmetry_equiv_pos_site_id
 _symmetry_equiv_pos_as_xyz
  1  'x, y, z'
loop_
 _atom_site_type_symbol
 _atom_site_label
 _atom_site_symmetry_multiplicity
 _atom_site_fract_x
 _atom_site_fract_y
 _atom_site_fract_z
 _atom_site_occupancy
  Li  Li0  1  0.25199000  0.30449300  0.86837300  1
  Li  Li1  1  0.74801000  0.80449300  0.13162700  1
  Ti  Ti2  1  0.24724000  0.49567800  0.31804500  1
  Ti  Ti3  1  0.75276000  0.99567800  0.68195500  1
  P  P4  1  0.07827800  0.71925400  0.96665100  1
  P  P5  1  0.07054500  0.11558200  0.37975200  1
  P  P6  1  0.35571100  0.93197300  0.81017000  1
  P  P7  1  0.37280000  0.86907500  0.44395000  1
  P  P8  1  0.62720000  0.36907500  0.55605000  1
  P  P9  1  0.64428900  0.43197300  0.18983000  1
  P  P10  1  0.92945500  0.61558200  0.62024800  1
  P  P11  1  0.92172200  0.21925400  0.03334900  1
  O  O12  1  0.06198800  0.60237400  0.79883700  1
  O  O13  1  0.04295200  0.56949300  0.47646200  1
  O  O14  1  0.27615900  0.09341900  0.80622600  1
  O  O15  1  0.08427200  0.32459400  0.03946800  1
  O  O16  1  0.16910300  0.27170500  0.38982900  1
  O  O17  1  0.26480500  0.81594700  0.94383600  1
  O  O18  1  0.11722200  0.62035000  0.12564500  1
  O  O19  1  0.21600000  0.97781000  0.34394500  1
  O  O20  1  0.29494000  0.83920000  0.63051100  1
  O  O21  1  0.37305500  0.71491100  0.34858800  1
  O  O22  1  0.56164000  0.91497400  0.84869700  1
  O  O23  1  0.44755500  0.45549700  0.53544200  1
  O  O24  1  0.55244500  0.95549700  0.46455800  1
  O  O25  1  0.43836000  0.41497400  0.15130300  1
  O  O26  1  0.62694500  0.21491100  0.65141200  1
  O  O27  1  0.70506000  0.33920000  0.36948900  1
  O  O28  1  0.78400000  0.47781000  0.65605500  1
  O  O29  1  0.88277800  0.12035000  0.87435500  1
  O  O30  1  0.73519500  0.31594700  0.05616400  1
  O  O31  1  0.83089700  0.77170500  0.61017100  1
  O  O32  1  0.91572800  0.82459400  0.96053200  1
  O  O33  1  0.72384100  0.59341900  0.19377400  1
  O  O34  1  0.95704800  0.06949300  0.52353800  1
  O  O35  1  0.93801200  0.10237400  0.20116300  1
