# generated using pymatgen
data_Fe4OF7
_symmetry_space_group_name_H-M   'P 1'
_cell_length_a   5.81255600
_cell_length_b   4.80639900
_cell_length_c   10.91329601
_cell_angle_alpha   90.00000000
_cell_angle_beta   98.00767560
_cell_angle_gamma   90.00000000
_symmetry_Int_Tables_number   1
_chemical_formula_structural   Fe4OF7
_chemical_formula_sum   'Fe8 O2 F14'
_cell_volume   301.91695357
_cell_formula_units_Z   2
loop_
 _symmetry_equiv_pos_site_id
 _symmetry_equiv_pos_as_xyz
  1  'x, y, z'
loop_
 _atom_site_type_symbol
 _atom_site_label
 _atom_site_symmetry_multiplicity
 _atom_site_fract_x
 _atom_site_fract_y
 _atom_site_fract_z
 _atom_site_occupancy
  Fe  Fe0  1  0.13293200  0.98565800  0.62536600  1
  Fe  Fe1  1  0.62670500  0.01245200  0.13198400  1
  Fe  Fe2  1  0.39629000  0.01896500  0.36936900  1
  Fe  Fe3  1  0.87794400  0.99688900  0.87606400  1
  Fe  Fe4  1  0.37329500  0.51245200  0.86801600  1
  Fe  Fe5  1  0.60371000  0.51896500  0.63063100  1
  Fe  Fe6  1  0.86706800  0.48565800  0.37463400  1
  Fe  Fe7  1  0.12205600  0.49688900  0.12393600  1
  O  O8  1  0.36219800  0.69062400  0.69134200  1
  O  O9  1  0.63780200  0.19062400  0.30865800  1
  F  F10  1  0.59459300  0.70558500  0.46088300  1
  F  F11  1  0.84818100  0.69546400  0.19969800  1
  F  F12  1  0.09994800  0.69964300  0.95088600  1
  F  F13  1  0.60488300  0.79958600  0.95385200  1
  F  F14  1  0.84770500  0.79078900  0.69870600  1
  F  F15  1  0.34069000  0.79750600  0.20988300  1
  F  F16  1  0.11357900  0.80683700  0.43775200  1
  F  F17  1  0.90005200  0.19964300  0.04911400  1
  F  F18  1  0.40540700  0.20558500  0.53911700  1
  F  F19  1  0.15181900  0.19546400  0.80030200  1
  F  F20  1  0.15229500  0.29078900  0.30129400  1
  F  F21  1  0.39511700  0.29958600  0.04614800  1
  F  F22  1  0.65931000  0.29750600  0.79011700  1
  F  F23  1  0.88642100  0.30683700  0.56224800  1
