# generated using pymatgen
data_LiNb(PO3)4
_symmetry_space_group_name_H-M   'P 1'
_cell_length_a   15.90172400
_cell_length_b   7.15651800
_cell_length_c   9.49065361
_cell_angle_alpha   90.00000000
_cell_angle_beta   123.99329972
_cell_angle_gamma   90.00000000
_symmetry_Int_Tables_number   1
_chemical_formula_structural   LiNb(PO3)4
_chemical_formula_sum   'Li4 Nb4 P16 O48'
_cell_volume   895.46902463
_cell_formula_units_Z   4
loop_
 _symmetry_equiv_pos_site_id
 _symmetry_equiv_pos_as_xyz
  1  'x, y, z'
loop_
 _atom_site_type_symbol
 _atom_site_label
 _atom_site_symmetry_multiplicity
 _atom_site_fract_x
 _atom_site_fract_y
 _atom_site_fract_z
 _atom_site_occupancy
  Li  Li0  1  0.00000000  0.30324600  0.75000000  1
  Li  Li1  1  0.00000000  0.69675400  0.25000000  1
  Li  Li2  1  0.50000000  0.80324600  0.75000000  1
  Li  Li3  1  0.50000000  0.19675400  0.25000000  1
  Nb  Nb4  1  0.00000000  0.82944600  0.75000000  1
  Nb  Nb5  1  0.00000000  0.17055400  0.25000000  1
  Nb  Nb6  1  0.50000000  0.32944600  0.75000000  1
  Nb  Nb7  1  0.50000000  0.67055400  0.25000000  1
  P  P8  1  0.64531350  0.34834250  0.18814800  1
  P  P9  1  0.63392550  0.94463350  0.11918600  1
  P  P10  1  0.86607450  0.44463350  0.38081400  1
  P  P11  1  0.85468650  0.84834250  0.31185200  1
  P  P12  1  0.14531350  0.15165750  0.68814800  1
  P  P13  1  0.13392550  0.55536650  0.61918600  1
  P  P14  1  0.36607450  0.05536650  0.88081400  1
  P  P15  1  0.35468650  0.65165750  0.81185200  1
  P  P16  1  0.14531350  0.84834250  0.18814800  1
  P  P17  1  0.13392550  0.44463350  0.11918600  1
  P  P18  1  0.36607450  0.94463350  0.38081400  1
  P  P19  1  0.35468650  0.34834250  0.31185200  1
  P  P20  1  0.64531350  0.65165750  0.68814800  1
  P  P21  1  0.63392550  0.05536650  0.61918600  1
  P  P22  1  0.86607450  0.55536650  0.88081400  1
  P  P23  1  0.85468650  0.15165750  0.81185200  1
  O  O24  1  0.60976500  0.78750300  0.19666200  1
  O  O25  1  0.65085400  0.12847900  0.23057500  1
  O  O26  1  0.62899000  0.37989100  0.01928800  1
  O  O27  1  0.75361400  0.41862800  0.34132500  1
  O  O28  1  0.93190900  0.08015000  0.77929300  1
  O  O29  1  0.74638600  0.91862800  0.15867500  1
  O  O30  1  0.87101000  0.87989100  0.48071200  1
  O  O31  1  0.93342400  0.48242400  0.56714800  1
  O  O32  1  0.06657600  0.48242400  0.93285200  1
  O  O33  1  0.84914600  0.62847900  0.26942500  1
  O  O34  1  0.89023500  0.28750300  0.30333800  1
  O  O35  1  0.06809100  0.08015000  0.72070700  1
  O  O36  1  0.93190900  0.91985000  0.27929300  1
  O  O37  1  0.10976500  0.71249700  0.69666200  1
  O  O38  1  0.15085400  0.37152100  0.73057500  1
  O  O39  1  0.93342400  0.51757600  0.06714800  1
  O  O40  1  0.06657600  0.51757600  0.43285200  1
  O  O41  1  0.12899000  0.12010900  0.51928800  1
  O  O42  1  0.25361400  0.08137200  0.84132500  1
  O  O43  1  0.06809100  0.91985000  0.22070700  1
  O  O44  1  0.24638600  0.58137200  0.65867500  1
  O  O45  1  0.37101000  0.62010900  0.98071200  1
  O  O46  1  0.34914600  0.87152100  0.76942500  1
  O  O47  1  0.39023500  0.21249700  0.80333800  1
  O  O48  1  0.10976500  0.28750300  0.19666200  1
  O  O49  1  0.15085400  0.62847900  0.23057500  1
  O  O50  1  0.12899000  0.87989100  0.01928800  1
  O  O51  1  0.25361400  0.91862800  0.34132500  1
  O  O52  1  0.43190900  0.58015000  0.77929300  1
  O  O53  1  0.24638600  0.41862800  0.15867500  1
  O  O54  1  0.37101000  0.37989100  0.48071200  1
  O  O55  1  0.43342400  0.98242400  0.56714800  1
  O  O56  1  0.56657600  0.98242400  0.93285200  1
  O  O57  1  0.34914600  0.12847900  0.26942500  1
  O  O58  1  0.39023500  0.78750300  0.30333800  1
  O  O59  1  0.56809100  0.58015000  0.72070700  1
  O  O60  1  0.43190900  0.41985000  0.27929300  1
  O  O61  1  0.60976500  0.21249700  0.69666200  1
  O  O62  1  0.65085400  0.87152100  0.73057500  1
  O  O63  1  0.43342400  0.01757600  0.06714800  1
  O  O64  1  0.56657600  0.01757600  0.43285200  1
  O  O65  1  0.62899000  0.62010900  0.51928800  1
  O  O66  1  0.75361400  0.58137200  0.84132500  1
  O  O67  1  0.56809100  0.41985000  0.22070700  1
  O  O68  1  0.74638600  0.08137200  0.65867500  1
  O  O69  1  0.87101000  0.12010900  0.98071200  1
  O  O70  1  0.84914600  0.37152100  0.76942500  1
  O  O71  1  0.89023500  0.71249700  0.80333800  1
