# generated using pymatgen
data_Co3OF5
_symmetry_space_group_name_H-M   'P 1'
_cell_length_a   9.01606200
_cell_length_b   6.78388200
_cell_length_c   7.26380136
_cell_angle_alpha   90.00000000
_cell_angle_beta   109.86003730
_cell_angle_gamma   90.00000000
_symmetry_Int_Tables_number   1
_chemical_formula_structural   Co3OF5
_chemical_formula_sum   'Co12 O4 F20'
_cell_volume   417.85886409
_cell_formula_units_Z   4
loop_
 _symmetry_equiv_pos_site_id
 _symmetry_equiv_pos_as_xyz
  1  'x, y, z'
loop_
 _atom_site_type_symbol
 _atom_site_label
 _atom_site_symmetry_multiplicity
 _atom_site_fract_x
 _atom_site_fract_y
 _atom_site_fract_z
 _atom_site_occupancy
  Co  Co0  1  0.17306900  0.50000000  0.15481200  1
  Co  Co1  1  0.15207800  0.50000000  0.68737400  1
  Co  Co2  1  0.83945000  0.50000000  0.33624500  1
  Co  Co3  1  0.83828900  0.50000000  0.82236600  1
  Co  Co4  1  0.49836900  0.50000000  0.50318000  1
  Co  Co5  1  0.49130600  0.50000000  0.00413100  1
  Co  Co6  1  0.67306900  0.00000000  0.15481200  1
  Co  Co7  1  0.65207800  0.00000000  0.68737400  1
  Co  Co8  1  0.33945000  0.00000000  0.33624500  1
  Co  Co9  1  0.33828900  0.00000000  0.82236600  1
  Co  Co10  1  0.99836900  0.00000000  0.50318000  1
  Co  Co11  1  0.99130600  0.00000000  0.00413100  1
  O  O12  1  0.94114400  0.50000000  0.63044500  1
  O  O13  1  0.26284000  0.50000000  0.97257300  1
  O  O14  1  0.44114400  0.00000000  0.63044500  1
  O  O15  1  0.76284000  0.00000000  0.97257300  1
  F  F16  1  0.16561200  0.19517600  0.66893100  1
  F  F17  1  0.83492350  0.19509050  0.32791300  1
  F  F18  1  0.07808300  0.50000000  0.35930200  1
  F  F19  1  0.38468800  0.50000000  0.70058800  1
  F  F20  1  0.73190600  0.50000000  0.03225400  1
  F  F21  1  0.60439000  0.50000000  0.29984400  1
  F  F22  1  0.16561200  0.80482400  0.66893100  1
  F  F23  1  0.83492350  0.80490950  0.32791300  1
  F  F24  1  0.00165750  0.30462450  0.00160100  1
  F  F25  1  0.00165750  0.69537550  0.00160100  1
  F  F26  1  0.66561200  0.69517600  0.66893100  1
  F  F27  1  0.33492350  0.69509050  0.32791300  1
  F  F28  1  0.57808300  0.00000000  0.35930200  1
  F  F29  1  0.88468800  0.00000000  0.70058800  1
  F  F30  1  0.23190600  0.00000000  0.03225400  1
  F  F31  1  0.10439000  0.00000000  0.29984400  1
  F  F32  1  0.66561200  0.30482400  0.66893100  1
  F  F33  1  0.33492350  0.30490950  0.32791300  1
  F  F34  1  0.50165750  0.80462450  0.00160100  1
  F  F35  1  0.50165750  0.19537550  0.00160100  1
