# generated using pymatgen
data_Ti3(SnO5)2
_symmetry_space_group_name_H-M   'P 1'
_cell_length_a   6.68128600
_cell_length_b   6.68625400
_cell_length_c   15.43283900
_cell_angle_alpha   90.00000000
_cell_angle_beta   90.00000000
_cell_angle_gamma   90.00000000
_symmetry_Int_Tables_number   1
_chemical_formula_structural   Ti3(SnO5)2
_chemical_formula_sum   'Ti12 Sn8 O40'
_cell_volume   689.42774800
_cell_formula_units_Z   4
loop_
 _symmetry_equiv_pos_site_id
 _symmetry_equiv_pos_as_xyz
  1  'x, y, z'
loop_
 _atom_site_type_symbol
 _atom_site_label
 _atom_site_symmetry_multiplicity
 _atom_site_fract_x
 _atom_site_fract_y
 _atom_site_fract_z
 _atom_site_occupancy
  Ti  Ti0  1  0.00000000  0.00000000  0.19234500  1
  Ti  Ti1  1  0.00000000  0.00000000  0.00073100  1
  Ti  Ti2  1  0.00000000  0.00000000  0.60081900  1
  Ti  Ti3  1  0.00000000  0.00000000  0.80035500  1
  Ti  Ti4  1  0.50000000  0.00000000  0.50267900  1
  Ti  Ti5  1  0.50000000  0.00000000  0.10057700  1
  Ti  Ti6  1  0.50000000  0.50000000  0.19234500  1
  Ti  Ti7  1  0.50000000  0.50000000  0.00073100  1
  Ti  Ti8  1  0.50000000  0.50000000  0.60081900  1
  Ti  Ti9  1  0.50000000  0.50000000  0.80035500  1
  Ti  Ti10  1  0.00000000  0.50000000  0.50267900  1
  Ti  Ti11  1  0.00000000  0.50000000  0.10057700  1
  Sn  Sn12  1  0.00000000  0.00000000  0.40159100  1
  Sn  Sn13  1  0.50000000  0.00000000  0.69862400  1
  Sn  Sn14  1  0.50000000  0.00000000  0.29757000  1
  Sn  Sn15  1  0.50000000  0.00000000  0.90259000  1
  Sn  Sn16  1  0.50000000  0.50000000  0.40159100  1
  Sn  Sn17  1  0.00000000  0.50000000  0.69862400  1
  Sn  Sn18  1  0.00000000  0.50000000  0.29757000  1
  Sn  Sn19  1  0.00000000  0.50000000  0.90259000  1
  O  O20  1  0.50000000  0.30061400  0.50674200  1
  O  O21  1  0.50000000  0.30690600  0.09903800  1
  O  O22  1  0.50000000  0.30954000  0.29415500  1
  O  O23  1  0.50000000  0.31337500  0.70077000  1
  O  O24  1  0.50000000  0.31376100  0.90140700  1
  O  O25  1  0.30016500  0.00000000  0.00571300  1
  O  O26  1  0.30132500  0.00000000  0.19239500  1
  O  O27  1  0.29661000  0.00000000  0.80051600  1
  O  O28  1  0.30949100  0.00000000  0.40451200  1
  O  O29  1  0.29980500  0.00000000  0.59581100  1
  O  O30  1  0.69983500  0.00000000  0.00571300  1
  O  O31  1  0.69867500  0.00000000  0.19239500  1
  O  O32  1  0.69050900  0.00000000  0.40451200  1
  O  O33  1  0.70019500  0.00000000  0.59581100  1
  O  O34  1  0.70339000  0.00000000  0.80051600  1
  O  O35  1  0.50000000  0.69309400  0.09903800  1
  O  O36  1  0.50000000  0.69938600  0.50674200  1
  O  O37  1  0.50000000  0.69046000  0.29415500  1
  O  O38  1  0.50000000  0.68662500  0.70077000  1
  O  O39  1  0.50000000  0.68623900  0.90140700  1
  O  O40  1  0.00000000  0.80061400  0.50674200  1
  O  O41  1  0.00000000  0.80690600  0.09903800  1
  O  O42  1  0.00000000  0.80954000  0.29415500  1
  O  O43  1  0.00000000  0.81337500  0.70077000  1
  O  O44  1  0.00000000  0.81376100  0.90140700  1
  O  O45  1  0.80016500  0.50000000  0.00571300  1
  O  O46  1  0.80132500  0.50000000  0.19239500  1
  O  O47  1  0.79661000  0.50000000  0.80051600  1
  O  O48  1  0.80949100  0.50000000  0.40451200  1
  O  O49  1  0.79980500  0.50000000  0.59581100  1
  O  O50  1  0.19983500  0.50000000  0.00571300  1
  O  O51  1  0.19867500  0.50000000  0.19239500  1
  O  O52  1  0.19050900  0.50000000  0.40451200  1
  O  O53  1  0.20019500  0.50000000  0.59581100  1
  O  O54  1  0.20339000  0.50000000  0.80051600  1
  O  O55  1  0.00000000  0.19309400  0.09903800  1
  O  O56  1  0.00000000  0.19938600  0.50674200  1
  O  O57  1  0.00000000  0.19046000  0.29415500  1
  O  O58  1  0.00000000  0.18662500  0.70077000  1
  O  O59  1  0.00000000  0.18623900  0.90140700  1
