# generated using pymatgen
data_Ca3(PO4)2
_symmetry_space_group_name_H-M   'P 1'
_cell_length_a   5.62171000
_cell_length_b   8.92011800
_cell_length_c   7.23381342
_cell_angle_alpha   90.00000000
_cell_angle_beta   90.53759144
_cell_angle_gamma   90.00000000
_symmetry_Int_Tables_number   1
_chemical_formula_structural   Ca3(PO4)2
_chemical_formula_sum   'Ca6 P4 O16'
_cell_volume   362.73313012
_cell_formula_units_Z   2
loop_
 _symmetry_equiv_pos_site_id
 _symmetry_equiv_pos_as_xyz
  1  'x, y, z'
loop_
 _atom_site_type_symbol
 _atom_site_label
 _atom_site_symmetry_multiplicity
 _atom_site_fract_x
 _atom_site_fract_y
 _atom_site_fract_z
 _atom_site_occupancy
  Ca  Ca0  1  0.50000000  0.18828100  0.00000000  1
  Ca  Ca1  1  0.50519050  0.50816850  0.27298100  1
  Ca  Ca2  1  0.49480950  0.50816850  0.72701900  1
  Ca  Ca3  1  0.00000000  0.68828100  0.00000000  1
  Ca  Ca4  1  0.00519050  0.00816850  0.27298100  1
  Ca  Ca5  1  0.99480950  0.00816850  0.72701900  1
  P  P6  1  0.50000000  0.15148300  0.50000000  1
  P  P7  1  0.50000000  0.84732100  0.00000000  1
  P  P8  1  0.00000000  0.65148300  0.50000000  1
  P  P9  1  0.00000000  0.34732100  0.00000000  1
  O  O10  1  0.27377950  0.05171550  0.50594600  1
  O  O11  1  0.72622050  0.05171550  0.49405400  1
  O  O12  1  0.48819000  0.24772400  0.31942500  1
  O  O13  1  0.51181000  0.24772400  0.68057500  1
  O  O14  1  0.51952900  0.74934700  0.82850000  1
  O  O15  1  0.48047100  0.74934700  0.17150000  1
  O  O16  1  0.27481300  0.95547600  0.99155700  1
  O  O17  1  0.72518700  0.95547600  0.00844300  1
  O  O18  1  0.77377950  0.55171550  0.50594600  1
  O  O19  1  0.22622050  0.55171550  0.49405400  1
  O  O20  1  0.98819000  0.74772400  0.31942500  1
  O  O21  1  0.01181000  0.74772400  0.68057500  1
  O  O22  1  0.01952900  0.24934700  0.82850000  1
  O  O23  1  0.98047100  0.24934700  0.17150000  1
  O  O24  1  0.77481300  0.45547600  0.99155700  1
  O  O25  1  0.22518700  0.45547600  0.00844300  1
