# generated using pymatgen
data_Er2P4O13
_symmetry_space_group_name_H-M   'P 1'
_cell_length_a   11.94369400
_cell_length_b   6.75799800
_cell_length_c   12.94670522
_cell_angle_alpha   90.00000000
_cell_angle_beta   106.12415129
_cell_angle_gamma   90.00000000
_symmetry_Int_Tables_number   1
_chemical_formula_structural   Er2P4O13
_chemical_formula_sum   'Er8 P16 O52'
_cell_volume   1003.89127141
_cell_formula_units_Z   4
loop_
 _symmetry_equiv_pos_site_id
 _symmetry_equiv_pos_as_xyz
  1  'x, y, z'
loop_
 _atom_site_type_symbol
 _atom_site_label
 _atom_site_symmetry_multiplicity
 _atom_site_fract_x
 _atom_site_fract_y
 _atom_site_fract_z
 _atom_site_occupancy
  Er  Er0  1  0.69392150  0.00228450  0.55112200  1
  Er  Er1  1  0.69392150  0.99771550  0.05112200  1
  Er  Er2  1  0.80607850  0.50228450  0.94887800  1
  Er  Er3  1  0.80607850  0.49771550  0.44887800  1
  Er  Er4  1  0.19392150  0.50228450  0.55112200  1
  Er  Er5  1  0.19392150  0.49771550  0.05112200  1
  Er  Er6  1  0.30607850  0.00228450  0.94887800  1
  Er  Er7  1  0.30607850  0.99771550  0.44887800  1
  P  P8  1  0.98818800  0.14946700  0.63347300  1
  P  P9  1  0.76657400  0.00652300  0.84044900  1
  P  P10  1  0.51181200  0.64946700  0.86652700  1
  P  P11  1  0.73342600  0.50652300  0.65955100  1
  P  P12  1  0.76657400  0.99347700  0.34044900  1
  P  P13  1  0.98818800  0.85053300  0.13347300  1
  P  P14  1  0.73342600  0.49347700  0.15955100  1
  P  P15  1  0.51181200  0.35053300  0.36652700  1
  P  P16  1  0.48818800  0.64946700  0.63347300  1
  P  P17  1  0.26657400  0.50652300  0.84044900  1
  P  P18  1  0.01181200  0.14946700  0.86652700  1
  P  P19  1  0.23342600  0.00652300  0.65955100  1
  P  P20  1  0.26657400  0.49347700  0.34044900  1
  P  P21  1  0.48818800  0.35053300  0.13347300  1
  P  P22  1  0.23342600  0.99347700  0.15955100  1
  P  P23  1  0.01181200  0.85053300  0.36652700  1
  O  O24  1  0.99498100  0.32204600  0.55910900  1
  O  O25  1  0.88699900  0.01012700  0.60306000  1
  O  O26  1  0.90320450  0.00425650  0.84695600  1
  O  O27  1  0.88699900  0.98987300  0.10306000  1
  O  O28  1  0.74916000  0.82461100  0.90547400  1
  O  O29  1  0.90320450  0.99574350  0.34695600  1
  O  O30  1  0.69904950  0.00573950  0.72337100  1
  O  O31  1  0.75084000  0.32461100  0.59452600  1
  O  O32  1  0.99498100  0.67795400  0.05910900  1
  O  O33  1  0.74377200  0.18220700  0.90693400  1
  O  O34  1  0.80095050  0.50573950  0.77662900  1
  O  O35  1  0.74377200  0.81779300  0.40693400  1
  O  O36  1  0.00000000  0.24643900  0.75000000  1
  O  O37  1  0.75622800  0.68220700  0.59306600  1
  O  O38  1  0.69904950  0.99426050  0.22337100  1
  O  O39  1  0.75622800  0.31779300  0.09306600  1
  O  O40  1  0.50501900  0.82204600  0.94089100  1
  O  O41  1  0.74916000  0.17538900  0.40547400  1
  O  O42  1  0.80095050  0.49426050  0.27662900  1
  O  O43  1  0.59679550  0.50425650  0.65304400  1
  O  O44  1  0.75084000  0.67538900  0.09452600  1
  O  O45  1  0.61300100  0.51012700  0.89694000  1
  O  O46  1  0.59679550  0.49574350  0.15304400  1
  O  O47  1  0.00000000  0.75356100  0.25000000  1
  O  O48  1  0.61300100  0.48987300  0.39694000  1
  O  O49  1  0.50501900  0.17795400  0.44089100  1
  O  O50  1  0.49498100  0.82204600  0.55910900  1
  O  O51  1  0.38699900  0.51012700  0.60306000  1
  O  O52  1  0.40320450  0.50425650  0.84695600  1
  O  O53  1  0.38699900  0.48987300  0.10306000  1
  O  O54  1  0.24916000  0.32461100  0.90547400  1
  O  O55  1  0.40320450  0.49574350  0.34695600  1
  O  O56  1  0.19904950  0.50573950  0.72337100  1
  O  O57  1  0.25084000  0.82461100  0.59452600  1
  O  O58  1  0.49498100  0.17795400  0.05910900  1
  O  O59  1  0.24377200  0.68220700  0.90693400  1
  O  O60  1  0.30095050  0.00573950  0.77662900  1
  O  O61  1  0.24377200  0.31779300  0.40693400  1
  O  O62  1  0.50000000  0.74643900  0.75000000  1
  O  O63  1  0.25622800  0.18220700  0.59306600  1
  O  O64  1  0.19904950  0.49426050  0.22337100  1
  O  O65  1  0.25622800  0.81779300  0.09306600  1
  O  O66  1  0.00501900  0.32204600  0.94089100  1
  O  O67  1  0.24916000  0.67538900  0.40547400  1
  O  O68  1  0.30095050  0.99426050  0.27662900  1
  O  O69  1  0.09679550  0.00425650  0.65304400  1
  O  O70  1  0.25084000  0.17538900  0.09452600  1
  O  O71  1  0.11300100  0.01012700  0.89694000  1
  O  O72  1  0.09679550  0.99574350  0.15304400  1
  O  O73  1  0.50000000  0.25356100  0.25000000  1
  O  O74  1  0.11300100  0.98987300  0.39694000  1
  O  O75  1  0.00501900  0.67795400  0.44089100  1
