# generated using pymatgen
data_Ba6YBr15
_symmetry_space_group_name_H-M   'P 1'
_cell_length_a   16.61459800
_cell_length_b   12.35180700
_cell_length_c   24.96041241
_cell_angle_alpha   90.00000000
_cell_angle_beta   114.46977948
_cell_angle_gamma   90.00000000
_symmetry_Int_Tables_number   1
_chemical_formula_structural   Ba6YBr15
_chemical_formula_sum   'Ba24 Y4 Br60'
_cell_volume   4662.29038183
_cell_formula_units_Z   4
loop_
 _symmetry_equiv_pos_site_id
 _symmetry_equiv_pos_as_xyz
  1  'x, y, z'
loop_
 _atom_site_type_symbol
 _atom_site_label
 _atom_site_symmetry_multiplicity
 _atom_site_fract_x
 _atom_site_fract_y
 _atom_site_fract_z
 _atom_site_occupancy
  Ba  Ba0  1  0.86794400  0.62722200  0.11617500  1
  Ba  Ba1  1  0.87623900  0.12266100  0.11941200  1
  Ba  Ba2  1  0.45107300  0.87204500  0.05702300  1
  Ba  Ba3  1  0.42907800  0.37286000  0.03763300  1
  Ba  Ba4  1  0.09983600  0.38130300  0.09027200  1
  Ba  Ba5  1  0.10301500  0.86823700  0.08380400  1
  Ba  Ba6  1  0.89698500  0.36823700  0.41619600  1
  Ba  Ba7  1  0.90016400  0.88130300  0.40972800  1
  Ba  Ba8  1  0.57092200  0.87286000  0.46236700  1
  Ba  Ba9  1  0.54892700  0.37204500  0.44297700  1
  Ba  Ba10  1  0.12376100  0.62266100  0.38058800  1
  Ba  Ba11  1  0.13205600  0.12722200  0.38382500  1
  Ba  Ba12  1  0.86794400  0.87277800  0.61617500  1
  Ba  Ba13  1  0.87623900  0.37733900  0.61941200  1
  Ba  Ba14  1  0.45107300  0.62795500  0.55702300  1
  Ba  Ba15  1  0.42907800  0.12714000  0.53763300  1
  Ba  Ba16  1  0.09983600  0.11869700  0.59027200  1
  Ba  Ba17  1  0.10301500  0.63176300  0.58380400  1
  Ba  Ba18  1  0.89698500  0.13176300  0.91619600  1
  Ba  Ba19  1  0.90016400  0.61869700  0.90972800  1
  Ba  Ba20  1  0.57092200  0.62714000  0.96236700  1
  Ba  Ba21  1  0.54892700  0.12795500  0.94297700  1
  Ba  Ba22  1  0.12376100  0.87733900  0.88058800  1
  Ba  Ba23  1  0.13205600  0.37277800  0.88382500  1
  Y  Y24  1  0.63248100  0.12737200  0.21958400  1
  Y  Y25  1  0.36751900  0.62737200  0.28041600  1
  Y  Y26  1  0.63248100  0.37262800  0.71958400  1
  Y  Y27  1  0.36751900  0.87262800  0.78041600  1
  Br  Br28  1  0.40574600  0.63157400  0.00003500  1
  Br  Br29  1  0.93383800  0.87520200  0.11580500  1
  Br  Br30  1  0.92374100  0.37436500  0.11417600  1
  Br  Br31  1  0.41770800  0.11418000  0.00679800  1
  Br  Br32  1  0.23160900  0.36897100  0.02779000  1
  Br  Br33  1  0.24058300  0.88273400  0.02329100  1
  Br  Br34  1  0.68506500  0.11667900  0.13025400  1
  Br  Br35  1  0.67181200  0.64129700  0.10424400  1
  Br  Br36  1  0.99310000  0.12689800  0.25289800  1
  Br  Br37  1  0.50302000  0.96959100  0.18564800  1
  Br  Br38  1  0.50468800  0.28394900  0.17307700  1
  Br  Br39  1  0.02717200  0.62540000  0.05539800  1
  Br  Br40  1  0.03505200  0.12453700  0.06380900  1
  Br  Br41  1  0.26225600  0.46910300  0.20398600  1
  Br  Br42  1  0.27179500  0.78166000  0.19708800  1
  Br  Br43  1  0.72820500  0.28166000  0.30291200  1
  Br  Br44  1  0.73774400  0.96910300  0.29601400  1
  Br  Br45  1  0.96494800  0.62453700  0.43619100  1
  Br  Br46  1  0.97282800  0.12540000  0.44460200  1
  Br  Br47  1  0.49531200  0.78394900  0.32692300  1
  Br  Br48  1  0.49698000  0.46959100  0.31435200  1
  Br  Br49  1  0.00690000  0.62689800  0.24710200  1
  Br  Br50  1  0.32818800  0.14129700  0.39575600  1
  Br  Br51  1  0.31493500  0.61667900  0.36974600  1
  Br  Br52  1  0.75941700  0.38273400  0.47670900  1
  Br  Br53  1  0.76839100  0.86897100  0.47221000  1
  Br  Br54  1  0.58229200  0.61418000  0.49320200  1
  Br  Br55  1  0.07625900  0.87436500  0.38582400  1
  Br  Br56  1  0.06616200  0.37520200  0.38419500  1
  Br  Br57  1  0.59425400  0.13157400  0.49996500  1
  Br  Br58  1  0.40574600  0.86842600  0.50003500  1
  Br  Br59  1  0.93383800  0.62479800  0.61580500  1
  Br  Br60  1  0.92374100  0.12563500  0.61417600  1
  Br  Br61  1  0.41770800  0.38582000  0.50679800  1
  Br  Br62  1  0.23160900  0.13102900  0.52779000  1
  Br  Br63  1  0.24058300  0.61726600  0.52329100  1
  Br  Br64  1  0.68506500  0.38332100  0.63025400  1
  Br  Br65  1  0.67181200  0.85870300  0.60424400  1
  Br  Br66  1  0.99310000  0.37310200  0.75289800  1
  Br  Br67  1  0.50302000  0.53040900  0.68564800  1
  Br  Br68  1  0.50468800  0.21605100  0.67307700  1
  Br  Br69  1  0.02717200  0.87460000  0.55539800  1
  Br  Br70  1  0.03505200  0.37546300  0.56380900  1
  Br  Br71  1  0.26225600  0.03089700  0.70398600  1
  Br  Br72  1  0.27179500  0.71834000  0.69708800  1
  Br  Br73  1  0.72820500  0.21834000  0.80291200  1
  Br  Br74  1  0.73774400  0.53089700  0.79601400  1
  Br  Br75  1  0.96494800  0.87546300  0.93619100  1
  Br  Br76  1  0.97282800  0.37460000  0.94460200  1
  Br  Br77  1  0.49531200  0.71605100  0.82692300  1
  Br  Br78  1  0.49698000  0.03040900  0.81435200  1
  Br  Br79  1  0.00690000  0.87310200  0.74710200  1
  Br  Br80  1  0.32818800  0.35870300  0.89575600  1
  Br  Br81  1  0.31493500  0.88332100  0.86974600  1
  Br  Br82  1  0.75941700  0.11726600  0.97670900  1
  Br  Br83  1  0.76839100  0.63102900  0.97221000  1
  Br  Br84  1  0.58229200  0.88582000  0.99320200  1
  Br  Br85  1  0.07625900  0.62563500  0.88582400  1
  Br  Br86  1  0.06616200  0.12479800  0.88419500  1
  Br  Br87  1  0.59425400  0.36842600  0.99996500  1
