# generated using pymatgen
data_Ho2TiO5
_symmetry_space_group_name_H-M   'P 1'
_cell_length_a   4.07607400
_cell_length_b   11.00545600
_cell_length_c   10.49464700
_cell_angle_alpha   90.00000000
_cell_angle_beta   90.00000000
_cell_angle_gamma   90.00000000
_symmetry_Int_Tables_number   1
_chemical_formula_structural   Ho2TiO5
_chemical_formula_sum   'Ho8 Ti4 O20'
_cell_volume   470.77992662
_cell_formula_units_Z   4
loop_
 _symmetry_equiv_pos_site_id
 _symmetry_equiv_pos_as_xyz
  1  'x, y, z'
loop_
 _atom_site_type_symbol
 _atom_site_label
 _atom_site_symmetry_multiplicity
 _atom_site_fract_x
 _atom_site_fract_y
 _atom_site_fract_z
 _atom_site_occupancy
  Ho  Ho0  1  0.50000000  0.35769500  0.43038500  1
  Ho  Ho1  1  0.50000000  0.35769500  0.06961500  1
  Ho  Ho2  1  0.00000000  0.14230500  0.56961500  1
  Ho  Ho3  1  0.00000000  0.14230500  0.93038500  1
  Ho  Ho4  1  0.00000000  0.85769500  0.43038500  1
  Ho  Ho5  1  0.00000000  0.85769500  0.06961500  1
  Ho  Ho6  1  0.50000000  0.64230500  0.56961500  1
  Ho  Ho7  1  0.50000000  0.64230500  0.93038500  1
  Ti  Ti8  1  0.50000000  0.32725300  0.75000000  1
  Ti  Ti9  1  0.00000000  0.17274700  0.25000000  1
  Ti  Ti10  1  0.00000000  0.82725300  0.75000000  1
  Ti  Ti11  1  0.50000000  0.67274700  0.25000000  1
  O  O12  1  0.50000000  0.44828100  0.87635100  1
  O  O13  1  0.50000000  0.44828100  0.62364900  1
  O  O14  1  0.00000000  0.29082100  0.40802300  1
  O  O15  1  0.00000000  0.29082100  0.09197700  1
  O  O16  1  0.50000000  0.22700200  0.25000000  1
  O  O17  1  0.00000000  0.27299800  0.75000000  1
  O  O18  1  0.50000000  0.20917900  0.59197700  1
  O  O19  1  0.50000000  0.20917900  0.90802300  1
  O  O20  1  0.00000000  0.05171900  0.12364900  1
  O  O21  1  0.00000000  0.05171900  0.37635100  1
  O  O22  1  0.00000000  0.94828100  0.87635100  1
  O  O23  1  0.00000000  0.94828100  0.62364900  1
  O  O24  1  0.50000000  0.79082100  0.40802300  1
  O  O25  1  0.50000000  0.79082100  0.09197700  1
  O  O26  1  0.00000000  0.72700200  0.25000000  1
  O  O27  1  0.50000000  0.77299800  0.75000000  1
  O  O28  1  0.00000000  0.70917900  0.59197700  1
  O  O29  1  0.00000000  0.70917900  0.90802300  1
  O  O30  1  0.50000000  0.55171900  0.12364900  1
  O  O31  1  0.50000000  0.55171900  0.37635100  1
