# generated using pymatgen
data_Ni(IO3)2
_symmetry_space_group_name_H-M   'P 1'
_cell_length_a   5.20093700
_cell_length_b   6.89597500
_cell_length_c   14.69710700
_cell_angle_alpha   90.00000000
_cell_angle_beta   90.00000000
_cell_angle_gamma   90.00000000
_symmetry_Int_Tables_number   1
_chemical_formula_structural   Ni(IO3)2
_chemical_formula_sum   'Ni4 I8 O24'
_cell_volume   527.11955449
_cell_formula_units_Z   4
loop_
 _symmetry_equiv_pos_site_id
 _symmetry_equiv_pos_as_xyz
  1  'x, y, z'
loop_
 _atom_site_type_symbol
 _atom_site_label
 _atom_site_symmetry_multiplicity
 _atom_site_fract_x
 _atom_site_fract_y
 _atom_site_fract_z
 _atom_site_occupancy
  Ni  Ni0  1  0.25000000  0.37233800  0.00000000  1
  Ni  Ni1  1  0.75000000  0.62766200  0.00000000  1
  Ni  Ni2  1  0.75000000  0.12766200  0.50000000  1
  Ni  Ni3  1  0.25000000  0.87233800  0.50000000  1
  I  I4  1  0.76725100  0.21817100  0.85243700  1
  I  I5  1  0.26725100  0.78182900  0.85243700  1
  I  I6  1  0.26725100  0.28182900  0.64756300  1
  I  I7  1  0.76725100  0.71817100  0.64756300  1
  I  I8  1  0.23274900  0.28182900  0.35243700  1
  I  I9  1  0.73274900  0.71817100  0.35243700  1
  I  I10  1  0.73274900  0.21817100  0.14756300  1
  I  I11  1  0.23274900  0.78182900  0.14756300  1
  O  O12  1  0.08932700  0.59916700  0.92273900  1
  O  O13  1  0.58932700  0.40083300  0.92273900  1
  O  O14  1  0.05852100  0.17224100  0.92121000  1
  O  O15  1  0.55852100  0.82775900  0.92121000  1
  O  O16  1  0.39115100  0.12726800  0.73705500  1
  O  O17  1  0.89115100  0.87273200  0.73705500  1
  O  O18  1  0.39115100  0.62726800  0.76294500  1
  O  O19  1  0.89115100  0.37273200  0.76294500  1
  O  O20  1  0.55852100  0.32775900  0.57879000  1
  O  O21  1  0.05852100  0.67224100  0.57879000  1
  O  O22  1  0.08932700  0.09916700  0.57726100  1
  O  O23  1  0.58932700  0.90083300  0.57726100  1
  O  O24  1  0.41067300  0.09916700  0.42273900  1
  O  O25  1  0.91067300  0.90083300  0.42273900  1
  O  O26  1  0.94147900  0.32775900  0.42121000  1
  O  O27  1  0.44147900  0.67224100  0.42121000  1
  O  O28  1  0.60884900  0.37273200  0.23705500  1
  O  O29  1  0.10884900  0.62726800  0.23705500  1
  O  O30  1  0.10884900  0.12726800  0.26294500  1
  O  O31  1  0.60884900  0.87273200  0.26294500  1
  O  O32  1  0.44147900  0.17224100  0.07879000  1
  O  O33  1  0.94147900  0.82775900  0.07879000  1
  O  O34  1  0.91067300  0.40083300  0.07726100  1
  O  O35  1  0.41067300  0.59916700  0.07726100  1
