# generated using pymatgen
data_Li3SbS4
_symmetry_space_group_name_H-M   'P 1'
_cell_length_a   5.66857400
_cell_length_b   5.66857400
_cell_length_c   11.12366800
_cell_angle_alpha   90.00000000
_cell_angle_beta   90.00000000
_cell_angle_gamma   90.00000000
_symmetry_Int_Tables_number   1
_chemical_formula_structural   Li3SbS4
_chemical_formula_sum   'Li6 Sb2 S8'
_cell_volume   357.43383373
_cell_formula_units_Z   2
loop_
 _symmetry_equiv_pos_site_id
 _symmetry_equiv_pos_as_xyz
  1  'x, y, z'
loop_
 _atom_site_type_symbol
 _atom_site_label
 _atom_site_symmetry_multiplicity
 _atom_site_fract_x
 _atom_site_fract_y
 _atom_site_fract_z
 _atom_site_occupancy
  Li  Li0  1  0.50000000  0.50000000  0.00000000  1
  Li  Li1  1  0.00000000  0.50000000  0.25000000  1
  Li  Li2  1  0.50000000  0.00000000  0.25000000  1
  Li  Li3  1  0.00000000  0.00000000  0.50000000  1
  Li  Li4  1  0.50000000  0.00000000  0.75000000  1
  Li  Li5  1  0.00000000  0.50000000  0.75000000  1
  Sb  Sb6  1  0.00000000  0.00000000  0.00000000  1
  Sb  Sb7  1  0.50000000  0.50000000  0.50000000  1
  S  S8  1  0.74051100  0.25948900  0.37519500  1
  S  S9  1  0.25948900  0.74051100  0.37519500  1
  S  S10  1  0.24051100  0.24051100  0.12480500  1
  S  S11  1  0.75948900  0.75948900  0.12480500  1
  S  S12  1  0.24051100  0.75948900  0.87519500  1
  S  S13  1  0.75948900  0.24051100  0.87519500  1
  S  S14  1  0.74051100  0.74051100  0.62480500  1
  S  S15  1  0.25948900  0.25948900  0.62480500  1
