# generated using pymatgen
data_LiCo2NiO6
_symmetry_space_group_name_H-M   'P 1'
_cell_length_a   2.86643815
_cell_length_b   5.86300889
_cell_length_c   6.46897324
_cell_angle_alpha   105.54928776
_cell_angle_beta   102.20750403
_cell_angle_gamma   88.15042081
_symmetry_Int_Tables_number   1
_chemical_formula_structural   LiCo2NiO6
_chemical_formula_sum   'Li1 Co2 Ni1 O6'
_cell_volume   102.33551069
_cell_formula_units_Z   1
loop_
 _symmetry_equiv_pos_site_id
 _symmetry_equiv_pos_as_xyz
  1  'x, y, z'
loop_
 _atom_site_type_symbol
 _atom_site_label
 _atom_site_symmetry_multiplicity
 _atom_site_fract_x
 _atom_site_fract_y
 _atom_site_fract_z
 _atom_site_occupancy
  Li  Li0  1  0.50000000  0.50000000  0.50000000  1
  Co  Co1  1  0.81616100  0.67306600  0.16039800  1
  Co  Co2  1  0.18383900  0.32693400  0.83960200  1
  Ni  Ni3  1  0.50000000  0.00000000  0.50000000  1
  O  O4  1  0.95265600  0.75571450  0.46644000  1
  O  O5  1  0.04734400  0.24428550  0.53356000  1
  O  O6  1  0.32476000  0.45450700  0.14869300  1
  O  O7  1  0.67524000  0.54549300  0.85130700  1
  O  O8  1  0.32297600  0.88576200  0.18417400  1
  O  O9  1  0.67702400  0.11423800  0.81582600  1
