# generated using pymatgen
data_SrSm2O4
_symmetry_space_group_name_H-M   'P 1'
_cell_length_a   10.07685200
_cell_length_b   10.07685200
_cell_length_c   10.07685200
_cell_angle_alpha   90.00000000
_cell_angle_beta   90.00000000
_cell_angle_gamma   90.00000000
_symmetry_Int_Tables_number   1
_chemical_formula_structural   SrSm2O4
_chemical_formula_sum   'Sr8 Sm16 O32'
_cell_volume   1023.23324080
_cell_formula_units_Z   8
loop_
 _symmetry_equiv_pos_site_id
 _symmetry_equiv_pos_as_xyz
  1  'x, y, z'
loop_
 _atom_site_type_symbol
 _atom_site_label
 _atom_site_symmetry_multiplicity
 _atom_site_fract_x
 _atom_site_fract_y
 _atom_site_fract_z
 _atom_site_occupancy
  Sr  Sr0  1  0.25000000  0.25000000  0.25000000  1
  Sr  Sr1  1  0.50000000  0.00000000  0.50000000  1
  Sr  Sr2  1  0.25000000  0.75000000  0.75000000  1
  Sr  Sr3  1  0.50000000  0.50000000  0.00000000  1
  Sr  Sr4  1  0.75000000  0.25000000  0.75000000  1
  Sr  Sr5  1  0.00000000  0.00000000  0.00000000  1
  Sr  Sr6  1  0.75000000  0.75000000  0.25000000  1
  Sr  Sr7  1  0.00000000  0.50000000  0.50000000  1
  Sm  Sm8  1  0.37500000  0.87500000  0.12500000  1
  Sm  Sm9  1  0.12500000  0.87500000  0.37500000  1
  Sm  Sm10  1  0.37500000  0.62500000  0.37500000  1
  Sm  Sm11  1  0.12500000  0.62500000  0.12500000  1
  Sm  Sm12  1  0.37500000  0.37500000  0.62500000  1
  Sm  Sm13  1  0.12500000  0.37500000  0.87500000  1
  Sm  Sm14  1  0.37500000  0.12500000  0.87500000  1
  Sm  Sm15  1  0.12500000  0.12500000  0.62500000  1
  Sm  Sm16  1  0.87500000  0.87500000  0.62500000  1
  Sm  Sm17  1  0.62500000  0.87500000  0.87500000  1
  Sm  Sm18  1  0.87500000  0.62500000  0.87500000  1
  Sm  Sm19  1  0.62500000  0.62500000  0.62500000  1
  Sm  Sm20  1  0.87500000  0.37500000  0.12500000  1
  Sm  Sm21  1  0.62500000  0.37500000  0.37500000  1
  Sm  Sm22  1  0.87500000  0.12500000  0.37500000  1
  Sm  Sm23  1  0.62500000  0.12500000  0.12500000  1
  O  O24  1  0.39038200  0.39038200  0.39038200  1
  O  O25  1  0.10961800  0.39038200  0.10961800  1
  O  O26  1  0.39038200  0.10961800  0.10961800  1
  O  O27  1  0.64038200  0.14038200  0.35961800  1
  O  O28  1  0.10961800  0.10961800  0.39038200  1
  O  O29  1  0.85961800  0.14038200  0.14038200  1
  O  O30  1  0.14038200  0.85961800  0.14038200  1
  O  O31  1  0.35961800  0.85961800  0.35961800  1
  O  O32  1  0.39038200  0.89038200  0.89038200  1
  O  O33  1  0.10961800  0.89038200  0.60961800  1
  O  O34  1  0.39038200  0.60961800  0.60961800  1
  O  O35  1  0.64038200  0.64038200  0.85961800  1
  O  O36  1  0.10961800  0.60961800  0.89038200  1
  O  O37  1  0.85961800  0.64038200  0.64038200  1
  O  O38  1  0.14038200  0.35961800  0.64038200  1
  O  O39  1  0.35961800  0.35961800  0.85961800  1
  O  O40  1  0.89038200  0.39038200  0.89038200  1
  O  O41  1  0.60961800  0.39038200  0.60961800  1
  O  O42  1  0.89038200  0.10961800  0.60961800  1
  O  O43  1  0.14038200  0.14038200  0.85961800  1
  O  O44  1  0.60961800  0.10961800  0.89038200  1
  O  O45  1  0.35961800  0.14038200  0.64038200  1
  O  O46  1  0.64038200  0.85961800  0.64038200  1
  O  O47  1  0.85961800  0.85961800  0.85961800  1
  O  O48  1  0.89038200  0.89038200  0.39038200  1
  O  O49  1  0.60961800  0.89038200  0.10961800  1
  O  O50  1  0.89038200  0.60961800  0.10961800  1
  O  O51  1  0.14038200  0.64038200  0.35961800  1
  O  O52  1  0.60961800  0.60961800  0.39038200  1
  O  O53  1  0.35961800  0.64038200  0.14038200  1
  O  O54  1  0.64038200  0.35961800  0.14038200  1
  O  O55  1  0.85961800  0.35961800  0.35961800  1
