# generated using pymatgen
data_Li2TiCo2O5
_symmetry_space_group_name_H-M   'P 1'
_cell_length_a   5.07943400
_cell_length_b   14.97711000
_cell_length_c   5.11582338
_cell_angle_alpha   90.00000000
_cell_angle_beta   108.37454577
_cell_angle_gamma   90.00000000
_symmetry_Int_Tables_number   1
_chemical_formula_structural   Li2TiCo2O5
_chemical_formula_sum   'Li8 Ti4 Co8 O20'
_cell_volume   369.34522265
_cell_formula_units_Z   4
loop_
 _symmetry_equiv_pos_site_id
 _symmetry_equiv_pos_as_xyz
  1  'x, y, z'
loop_
 _atom_site_type_symbol
 _atom_site_label
 _atom_site_symmetry_multiplicity
 _atom_site_fract_x
 _atom_site_fract_y
 _atom_site_fract_z
 _atom_site_occupancy
  Li  Li0  1  0.00000000  0.25030900  0.75000000  1
  Li  Li1  1  0.00000000  0.44782100  0.75000000  1
  Li  Li2  1  0.50000000  0.24969100  0.25000000  1
  Li  Li3  1  0.50000000  0.05217900  0.25000000  1
  Li  Li4  1  0.50000000  0.75030900  0.75000000  1
  Li  Li5  1  0.50000000  0.94782100  0.75000000  1
  Li  Li6  1  0.00000000  0.74969100  0.25000000  1
  Li  Li7  1  0.00000000  0.55217900  0.25000000  1
  Ti  Ti8  1  0.00000000  0.35235500  0.25000000  1
  Ti  Ti9  1  0.50000000  0.14764500  0.75000000  1
  Ti  Ti10  1  0.50000000  0.85235500  0.25000000  1
  Ti  Ti11  1  0.00000000  0.64764500  0.75000000  1
  Co  Co12  1  0.50000000  0.34846800  0.75000000  1
  Co  Co13  1  0.00000000  0.04883000  0.75000000  1
  Co  Co14  1  0.00000000  0.15153200  0.25000000  1
  Co  Co15  1  0.50000000  0.45117000  0.25000000  1
  Co  Co16  1  0.00000000  0.84846800  0.75000000  1
  Co  Co17  1  0.50000000  0.54883000  0.75000000  1
  Co  Co18  1  0.50000000  0.65153200  0.25000000  1
  Co  Co19  1  0.00000000  0.95117000  0.25000000  1
  O  O20  1  0.26281750  0.14872550  0.98312500  1
  O  O21  1  0.76281750  0.35127450  0.48312500  1
  O  O22  1  0.75000000  0.25000000  0.00000000  1
  O  O23  1  0.25992700  0.05607400  0.50999700  1
  O  O24  1  0.75992700  0.44392600  0.00999700  1
  O  O25  1  0.23718250  0.35127450  0.01687500  1
  O  O26  1  0.74007300  0.05607400  0.99000300  1
  O  O27  1  0.73718250  0.14872550  0.51687500  1
  O  O28  1  0.25000000  0.25000000  0.50000000  1
  O  O29  1  0.24007300  0.44392600  0.49000300  1
  O  O30  1  0.76281750  0.64872550  0.98312500  1
  O  O31  1  0.26281750  0.85127450  0.48312500  1
  O  O32  1  0.25000000  0.75000000  0.00000000  1
  O  O33  1  0.75992700  0.55607400  0.50999700  1
  O  O34  1  0.25992700  0.94392600  0.00999700  1
  O  O35  1  0.73718250  0.85127450  0.01687500  1
  O  O36  1  0.24007300  0.55607400  0.99000300  1
  O  O37  1  0.23718250  0.64872550  0.51687500  1
  O  O38  1  0.75000000  0.75000000  0.50000000  1
  O  O39  1  0.74007300  0.94392600  0.49000300  1
