# generated using pymatgen
data_BaCaI4
_symmetry_space_group_name_H-M   'P 1'
_cell_length_a   8.03954800
_cell_length_b   8.19251700
_cell_length_c   17.42505700
_cell_angle_alpha   90.00000000
_cell_angle_beta   90.00000000
_cell_angle_gamma   90.00000000
_symmetry_Int_Tables_number   1
_chemical_formula_structural   BaCaI4
_chemical_formula_sum   'Ba4 Ca4 I16'
_cell_volume   1147.68628332
_cell_formula_units_Z   4
loop_
 _symmetry_equiv_pos_site_id
 _symmetry_equiv_pos_as_xyz
  1  'x, y, z'
loop_
 _atom_site_type_symbol
 _atom_site_label
 _atom_site_symmetry_multiplicity
 _atom_site_fract_x
 _atom_site_fract_y
 _atom_site_fract_z
 _atom_site_occupancy
  Ba  Ba0  1  0.25000000  0.00000000  0.13602200  1
  Ba  Ba1  1  0.75000000  0.00000000  0.86397800  1
  Ba  Ba2  1  0.25000000  0.50000000  0.63602200  1
  Ba  Ba3  1  0.75000000  0.50000000  0.36397800  1
  Ca  Ca4  1  0.25000000  0.00000000  0.41230300  1
  Ca  Ca5  1  0.75000000  0.00000000  0.58769700  1
  Ca  Ca6  1  0.75000000  0.50000000  0.08769700  1
  Ca  Ca7  1  0.25000000  0.50000000  0.91230300  1
  I  I8  1  0.02386800  0.15898100  0.28928200  1
  I  I9  1  0.52386800  0.15898100  0.71071800  1
  I  I10  1  0.99814600  0.24948900  0.01845400  1
  I  I11  1  0.49814600  0.24948900  0.98154600  1
  I  I12  1  0.49814600  0.25051100  0.48154600  1
  I  I13  1  0.99814600  0.25051100  0.51845400  1
  I  I14  1  0.52386800  0.34101900  0.21071800  1
  I  I15  1  0.02386800  0.34101900  0.78928200  1
  I  I16  1  0.97613200  0.65898100  0.21071800  1
  I  I17  1  0.47613200  0.65898100  0.78928200  1
  I  I18  1  0.00185400  0.74948900  0.48154600  1
  I  I19  1  0.50185400  0.74948900  0.51845400  1
  I  I20  1  0.50185400  0.75051100  0.01845400  1
  I  I21  1  0.00185400  0.75051100  0.98154600  1
  I  I22  1  0.97613200  0.84101900  0.71071800  1
  I  I23  1  0.47613200  0.84101900  0.28928200  1
