# generated using pymatgen
data_Zr3N2O3
_symmetry_space_group_name_H-M   'P 1'
_cell_length_a   10.80947000
_cell_length_b   4.05322200
_cell_length_c   10.82210187
_cell_angle_alpha   90.00000000
_cell_angle_beta   90.49315705
_cell_angle_gamma   90.00000000
_symmetry_Int_Tables_number   1
_chemical_formula_structural   Zr3N2O3
_chemical_formula_sum   'Zr12 N8 O12'
_cell_volume   474.13315127
_cell_formula_units_Z   4
loop_
 _symmetry_equiv_pos_site_id
 _symmetry_equiv_pos_as_xyz
  1  'x, y, z'
loop_
 _atom_site_type_symbol
 _atom_site_label
 _atom_site_symmetry_multiplicity
 _atom_site_fract_x
 _atom_site_fract_y
 _atom_site_fract_z
 _atom_site_occupancy
  Zr  Zr0  1  0.81487700  0.00000000  0.75181900  1
  Zr  Zr1  1  0.85487200  0.00000000  0.05928300  1
  Zr  Zr2  1  0.86228300  0.00000000  0.44503000  1
  Zr  Zr3  1  0.69192000  0.50000000  0.25150400  1
  Zr  Zr4  1  0.64207500  0.50000000  0.94558500  1
  Zr  Zr5  1  0.63474100  0.50000000  0.56002600  1
  Zr  Zr6  1  0.31487700  0.50000000  0.75181900  1
  Zr  Zr7  1  0.35487200  0.50000000  0.05928300  1
  Zr  Zr8  1  0.36228300  0.50000000  0.44503000  1
  Zr  Zr9  1  0.19192000  0.00000000  0.25150400  1
  Zr  Zr10  1  0.14207500  0.00000000  0.94558500  1
  Zr  Zr11  1  0.13474100  0.00000000  0.56002600  1
  N  N12  1  0.70086400  0.00000000  0.92223800  1
  N  N13  1  0.95211800  0.00000000  0.61572000  1
  N  N14  1  0.79419500  0.50000000  0.42570600  1
  N  N15  1  0.79689600  0.50000000  0.08056800  1
  N  N16  1  0.20086400  0.50000000  0.92223800  1
  N  N17  1  0.45211800  0.50000000  0.61572000  1
  N  N18  1  0.29419500  0.00000000  0.42570600  1
  N  N19  1  0.29689600  0.00000000  0.08056800  1
  O  O20  1  0.68962000  0.00000000  0.58054900  1
  O  O21  1  0.75355400  0.00000000  0.24898100  1
  O  O22  1  0.95378600  0.00000000  0.88730200  1
  O  O23  1  0.74344000  0.50000000  0.74382500  1
  O  O24  1  0.54323500  0.50000000  0.11607400  1
  O  O25  1  0.54195500  0.50000000  0.38098400  1
  O  O26  1  0.18962000  0.50000000  0.58054900  1
  O  O27  1  0.25355400  0.50000000  0.24898100  1
  O  O28  1  0.45378600  0.50000000  0.88730200  1
  O  O29  1  0.24344000  0.00000000  0.74382500  1
  O  O30  1  0.04323500  0.00000000  0.11607400  1
  O  O31  1  0.04195500  0.00000000  0.38098400  1
