# generated using pymatgen
data_Ba3La2Cl12
_symmetry_space_group_name_H-M   'P 1'
_cell_length_a   11.75990600
_cell_length_b   11.75990600
_cell_length_c   7.16450200
_cell_angle_alpha   90.00000000
_cell_angle_beta   90.00000000
_cell_angle_gamma   90.00000000
_symmetry_Int_Tables_number   1
_chemical_formula_structural   Ba3La2Cl12
_chemical_formula_sum   'Ba6 La4 Cl24'
_cell_volume   990.81759200
_cell_formula_units_Z   2
loop_
 _symmetry_equiv_pos_site_id
 _symmetry_equiv_pos_as_xyz
  1  'x, y, z'
loop_
 _atom_site_type_symbol
 _atom_site_label
 _atom_site_symmetry_multiplicity
 _atom_site_fract_x
 _atom_site_fract_y
 _atom_site_fract_z
 _atom_site_occupancy
  Ba  Ba0  1  0.00000000  0.00000000  0.00000000  1
  Ba  Ba1  1  0.18244000  0.68244000  0.50000000  1
  Ba  Ba2  1  0.31756000  0.18244000  0.50000000  1
  Ba  Ba3  1  0.50000000  0.50000000  0.00000000  1
  Ba  Ba4  1  0.68244000  0.81756000  0.50000000  1
  Ba  Ba5  1  0.81756000  0.31756000  0.50000000  1
  La  La6  1  0.13597000  0.36403000  0.00000000  1
  La  La7  1  0.36403000  0.86403000  0.00000000  1
  La  La8  1  0.63597000  0.13597000  0.00000000  1
  La  La9  1  0.86403000  0.63597000  0.00000000  1
  Cl  Cl10  1  0.00000000  0.50000000  0.25626800  1
  Cl  Cl11  1  0.00000000  0.50000000  0.74373200  1
  Cl  Cl12  1  0.06163800  0.20789900  0.27041000  1
  Cl  Cl13  1  0.06163800  0.20789900  0.72959000  1
  Cl  Cl14  1  0.18890500  0.68890500  0.00000000  1
  Cl  Cl15  1  0.20789900  0.93836200  0.27041000  1
  Cl  Cl16  1  0.20789900  0.93836200  0.72959000  1
  Cl  Cl17  1  0.29210100  0.43836200  0.27041000  1
  Cl  Cl18  1  0.29210100  0.43836200  0.72959000  1
  Cl  Cl19  1  0.31109500  0.18890500  0.00000000  1
  Cl  Cl20  1  0.43836200  0.70789900  0.27041000  1
  Cl  Cl21  1  0.43836200  0.70789900  0.72959000  1
  Cl  Cl22  1  0.50000000  0.00000000  0.74373200  1
  Cl  Cl23  1  0.50000000  0.00000000  0.25626800  1
  Cl  Cl24  1  0.56163800  0.29210100  0.27041000  1
  Cl  Cl25  1  0.56163800  0.29210100  0.72959000  1
  Cl  Cl26  1  0.68890500  0.81109500  0.00000000  1
  Cl  Cl27  1  0.70789900  0.56163800  0.27041000  1
  Cl  Cl28  1  0.70789900  0.56163800  0.72959000  1
  Cl  Cl29  1  0.79210100  0.06163800  0.27041000  1
  Cl  Cl30  1  0.79210100  0.06163800  0.72959000  1
  Cl  Cl31  1  0.81109500  0.31109500  0.00000000  1
  Cl  Cl32  1  0.93836200  0.79210100  0.27041000  1
  Cl  Cl33  1  0.93836200  0.79210100  0.72959000  1
