# generated using pymatgen
data_ZnSeO4
_symmetry_space_group_name_H-M   'P 1'
_cell_length_a   5.57669600
_cell_length_b   8.29105200
_cell_length_c   6.59716700
_cell_angle_alpha   90.00000000
_cell_angle_beta   90.00000000
_cell_angle_gamma   90.00000000
_symmetry_Int_Tables_number   1
_chemical_formula_structural   ZnSeO4
_chemical_formula_sum   'Zn4 Se4 O16'
_cell_volume   305.03107656
_cell_formula_units_Z   4
loop_
 _symmetry_equiv_pos_site_id
 _symmetry_equiv_pos_as_xyz
  1  'x, y, z'
loop_
 _atom_site_type_symbol
 _atom_site_label
 _atom_site_symmetry_multiplicity
 _atom_site_fract_x
 _atom_site_fract_y
 _atom_site_fract_z
 _atom_site_occupancy
  Zn  Zn0  1  0.00000000  0.00000000  0.00000000  1
  Zn  Zn1  1  0.00000000  0.00000000  0.50000000  1
  Zn  Zn2  1  0.50000000  0.50000000  0.00000000  1
  Zn  Zn3  1  0.50000000  0.50000000  0.50000000  1
  Se  Se4  1  0.50000000  0.85091600  0.25000000  1
  Se  Se5  1  0.50000000  0.14908400  0.75000000  1
  Se  Se6  1  0.00000000  0.35091600  0.25000000  1
  Se  Se7  1  0.00000000  0.64908400  0.75000000  1
  O  O8  1  0.25456950  0.02626650  0.75000000  1
  O  O9  1  0.25456950  0.97373350  0.25000000  1
  O  O10  1  0.50000000  0.74511400  0.03671600  1
  O  O11  1  0.50000000  0.74511400  0.46328400  1
  O  O12  1  0.50000000  0.25488600  0.53671600  1
  O  O13  1  0.50000000  0.25488600  0.96328400  1
  O  O14  1  0.74543050  0.97373350  0.25000000  1
  O  O15  1  0.74543050  0.02626650  0.75000000  1
  O  O16  1  0.75456950  0.52626650  0.75000000  1
  O  O17  1  0.75456950  0.47373350  0.25000000  1
  O  O18  1  0.00000000  0.24511400  0.03671600  1
  O  O19  1  0.00000000  0.24511400  0.46328400  1
  O  O20  1  0.00000000  0.75488600  0.53671600  1
  O  O21  1  0.00000000  0.75488600  0.96328400  1
  O  O22  1  0.24543050  0.47373350  0.25000000  1
  O  O23  1  0.24543050  0.52626650  0.75000000  1
