# generated using pymatgen
data_Ti3FeNi2(PO4)6
_symmetry_space_group_name_H-M   'P 1'
_cell_length_a   8.63658466
_cell_length_b   8.63658466
_cell_length_c   20.62625049
_cell_angle_alpha   90.00000000
_cell_angle_beta   90.00000000
_cell_angle_gamma   120.00000000
_symmetry_Int_Tables_number   1
_chemical_formula_structural   Ti3FeNi2(PO4)6
_chemical_formula_sum   'Ti9 Fe3 Ni6 P18 O72'
_cell_volume   1332.40111648
_cell_formula_units_Z   3
loop_
 _symmetry_equiv_pos_site_id
 _symmetry_equiv_pos_as_xyz
  1  'x, y, z'
loop_
 _atom_site_type_symbol
 _atom_site_label
 _atom_site_symmetry_multiplicity
 _atom_site_fract_x
 _atom_site_fract_y
 _atom_site_fract_z
 _atom_site_occupancy
  Ti  Ti0  1  0.33333333  0.66666667  0.80960467  1
  Ti  Ti1  1  0.33333333  0.66666667  0.02168667  1
  Ti  Ti2  1  0.33333333  0.66666667  0.31269967  1
  Ti  Ti3  1  0.00000000  0.00000000  0.14293800  1
  Ti  Ti4  1  0.00000000  0.00000000  0.35502000  1
  Ti  Ti5  1  0.00000000  0.00000000  0.64603300  1
  Ti  Ti6  1  0.66666667  0.33333333  0.47627133  1
  Ti  Ti7  1  0.66666667  0.33333333  0.68835333  1
  Ti  Ti8  1  0.66666667  0.33333333  0.97936633  1
  Fe  Fe9  1  0.33333333  0.66666667  0.52363667  1
  Fe  Fe10  1  0.00000000  0.00000000  0.85697000  1
  Fe  Fe11  1  0.66666667  0.33333333  0.19030333  1
  Ni  Ni12  1  0.33333333  0.66666667  0.66342667  1
  Ni  Ni13  1  0.33333333  0.66666667  0.16589567  1
  Ni  Ni14  1  0.00000000  0.00000000  0.99676000  1
  Ni  Ni15  1  0.00000000  0.00000000  0.49922900  1
  Ni  Ni16  1  0.66666667  0.33333333  0.33009333  1
  Ni  Ni17  1  0.66666667  0.33333333  0.83256233  1
  P  P18  1  0.29398767  0.29621433  0.25009933  1
  P  P19  1  0.70378567  0.99777333  0.25009933  1
  P  P20  1  0.00222667  0.70601233  0.25009933  1
  P  P21  1  0.66803133  0.63129867  0.08465767  1
  P  P22  1  0.96326733  0.33196867  0.08465767  1
  P  P23  1  0.36870133  0.03673267  0.08465767  1
  P  P24  1  0.96065433  0.62954767  0.58343267  1
  P  P25  1  0.37045233  0.33110667  0.58343267  1
  P  P26  1  0.66889333  0.03934567  0.58343267  1
  P  P27  1  0.33469800  0.96463200  0.41799100  1
  P  P28  1  0.62993400  0.66530200  0.41799100  1
  P  P29  1  0.03536800  0.37006600  0.41799100  1
  P  P30  1  0.62732100  0.96288100  0.91676600  1
  P  P31  1  0.03711900  0.66444000  0.91676600  1
  P  P32  1  0.33556000  0.37267900  0.91676600  1
  P  P33  1  0.00136467  0.29796533  0.75132433  1
  P  P34  1  0.29660067  0.99863533  0.75132433  1
  P  P35  1  0.70203467  0.70339933  0.75132433  1
  O  O36  1  0.35405333  0.49098667  0.97599967  1
  O  O37  1  0.50901333  0.86306667  0.97599967  1
  O  O38  1  0.83656867  0.82057333  0.07368333  1
  O  O39  1  0.13693333  0.64594667  0.97599967  1
  O  O40  1  0.67263767  0.54332433  0.14596933  1
  O  O41  1  0.49990867  0.65627333  0.08812933  1
  O  O42  1  0.98400467  0.16343133  0.07368333  1
  O  O43  1  0.15636467  0.50009133  0.08812933  1
  O  O44  1  0.52429400  0.85350100  0.85580100  1
  O  O45  1  0.34372667  0.84363533  0.08812933  1
  O  O46  1  0.47520600  0.31238300  0.26194900  1
  O  O47  1  0.14649900  0.67079300  0.85580100  1
  O  O48  1  0.87068667  0.32736233  0.14596933  1
  O  O49  1  0.17942667  0.01599533  0.07368333  1
  O  O50  1  0.31083167  0.48384333  0.24127533  1
  O  O51  1  0.45667567  0.12931333  0.14596933  1
  O  O52  1  0.51615667  0.82698833  0.24127533  1
  O  O53  1  0.68761700  0.16282300  0.26194900  1
  O  O54  1  0.17301167  0.68916833  0.24127533  1
  O  O55  1  0.32920700  0.47570600  0.85580100  1
  O  O56  1  0.52520467  0.67137533  0.35678633  1
  O  O57  1  0.83717700  0.52479400  0.26194900  1
  O  O58  1  0.14617067  0.47479533  0.35678633  1
  O  O59  1  0.32862467  0.85382933  0.35678633  1
  O  O60  1  0.02072000  0.82432000  0.30933300  1
  O  O61  1  0.17568000  0.19640000  0.30933300  1
  O  O62  1  0.50323533  0.15390667  0.40701667  1
  O  O63  1  0.80360000  0.97928000  0.30933300  1
  O  O64  1  0.33930433  0.87665767  0.47930267  1
  O  O65  1  0.16657533  0.98960667  0.42146267  1
  O  O66  1  0.65067133  0.49676467  0.40701667  1
  O  O67  1  0.82303133  0.83342467  0.42146267  1
  O  O68  1  0.19096067  0.18683433  0.18913433  1
  O  O69  1  0.01039333  0.17696867  0.42146267  1
  O  O70  1  0.14187267  0.64571633  0.59528233  1
  O  O71  1  0.81316567  0.00412633  0.18913433  1
  O  O72  1  0.53735333  0.66069567  0.47930267  1
  O  O73  1  0.84609333  0.34932867  0.40701667  1
  O  O74  1  0.97749833  0.81717667  0.57460867  1
  O  O75  1  0.12334233  0.46264667  0.47930267  1
  O  O76  1  0.18282333  0.16032167  0.57460867  1
  O  O77  1  0.35428367  0.49615633  0.59528233  1
  O  O78  1  0.83967833  0.02250167  0.57460867  1
  O  O79  1  0.99587367  0.80903933  0.18913433  1
  O  O80  1  0.19187133  0.00470867  0.69011967  1
  O  O81  1  0.50384367  0.85812733  0.59528233  1
  O  O82  1  0.81283733  0.80812867  0.69011967  1
  O  O83  1  0.99529133  0.18716267  0.69011967  1
  O  O84  1  0.68738667  0.15765333  0.64266633  1
  O  O85  1  0.84234667  0.52973333  0.64266633  1
  O  O86  1  0.16990200  0.48724000  0.74035000  1
  O  O87  1  0.47026667  0.31261333  0.64266633  1
  O  O88  1  0.00597100  0.20999100  0.81263600  1
  O  O89  1  0.83324200  0.32294000  0.75479600  1
  O  O90  1  0.31733800  0.83009800  0.74035000  1
  O  O91  1  0.48969800  0.16675800  0.75479600  1
  O  O92  1  0.85762733  0.52016767  0.52246767  1
  O  O93  1  0.67706000  0.51030200  0.75479600  1
  O  O94  1  0.80853933  0.97904967  0.92861567  1
  O  O95  1  0.47983233  0.33745967  0.52246767  1
  O  O96  1  0.20402000  0.99402900  0.81263600  1
  O  O97  1  0.51276000  0.68266200  0.74035000  1
  O  O98  1  0.64416500  0.15051000  0.90794200  1
  O  O99  1  0.79000900  0.79598000  0.81263600  1
  O  O100  1  0.84949000  0.49365500  0.90794200  1
  O  O101  1  0.02095033  0.82948967  0.92861567  1
  O  O102  1  0.50634500  0.35583500  0.90794200  1
  O  O103  1  0.66254033  0.14237267  0.52246767  1
  O  O104  1  0.85853800  0.33804200  0.02345300  1
  O  O105  1  0.17051033  0.19146067  0.92861567  1
  O  O106  1  0.47950400  0.14146200  0.02345300  1
  O  O107  1  0.66195800  0.52049600  0.02345300  1
