# generated using pymatgen
data_Li3MnFeCo(PO4)3
_symmetry_space_group_name_H-M   'P 1'
_cell_length_a   10.46045000
_cell_length_b   6.09230500
_cell_length_c   14.27796637
_cell_angle_alpha   90.00000000
_cell_angle_beta   90.11011352
_cell_angle_gamma   90.00000000
_symmetry_Int_Tables_number   1
_chemical_formula_structural   Li3MnFeCo(PO4)3
_chemical_formula_sum   'Li12 Mn4 Fe4 Co4 P12 O48'
_cell_volume   909.90815604
_cell_formula_units_Z   4
loop_
 _symmetry_equiv_pos_site_id
 _symmetry_equiv_pos_as_xyz
  1  'x, y, z'
loop_
 _atom_site_type_symbol
 _atom_site_label
 _atom_site_symmetry_multiplicity
 _atom_site_fract_x
 _atom_site_fract_y
 _atom_site_fract_z
 _atom_site_occupancy
  Li  Li0  1  0.00244300  0.24920700  0.66716300  1
  Li  Li1  1  0.00132300  0.75047500  0.99965100  1
  Li  Li2  1  0.00132300  0.24952500  0.99965100  1
  Li  Li3  1  0.00189300  0.75102400  0.33307400  1
  Li  Li4  1  0.00189300  0.24897600  0.33307400  1
  Li  Li5  1  0.00244300  0.75079300  0.66716300  1
  Li  Li6  1  0.49759500  0.75074600  0.50092800  1
  Li  Li7  1  0.49759500  0.24925400  0.50092800  1
  Li  Li8  1  0.49848100  0.75045000  0.16675600  1
  Li  Li9  1  0.49848100  0.24955000  0.16675600  1
  Li  Li10  1  0.49742300  0.74984400  0.83285300  1
  Li  Li11  1  0.49742300  0.25015600  0.83285300  1
  Mn  Mn12  1  0.78195700  0.50000000  0.16019200  1
  Mn  Mn13  1  0.78145400  0.50000000  0.49381000  1
  Mn  Mn14  1  0.78190900  0.50000000  0.82669000  1
  Mn  Mn15  1  0.71816600  0.00000000  0.66003700  1
  Fe  Fe16  1  0.71966100  0.00000000  0.99289400  1
  Fe  Fe17  1  0.71812600  0.00000000  0.32576100  1
  Fe  Fe18  1  0.28006600  0.50000000  0.00716500  1
  Fe  Fe19  1  0.27990600  0.50000000  0.34099200  1
  Co  Co20  1  0.27844700  0.50000000  0.67405400  1
  Co  Co21  1  0.22180200  0.00000000  0.83914100  1
  Co  Co22  1  0.21983500  0.00000000  0.50693700  1
  Co  Co23  1  0.22092000  0.00000000  0.17296600  1
  P  P24  1  0.90953500  0.00000000  0.80603400  1
  P  P25  1  0.90757700  0.00000000  0.13837400  1
  P  P26  1  0.90839000  0.00000000  0.47058500  1
  P  P27  1  0.59131100  0.50000000  0.30690900  1
  P  P28  1  0.58932600  0.50000000  0.63918600  1
  P  P29  1  0.59165100  0.50000000  0.97358200  1
  P  P30  1  0.40353800  0.00000000  0.36055000  1
  P  P31  1  0.40432500  0.00000000  0.02733500  1
  P  P32  1  0.40216200  0.00000000  0.69414800  1
  P  P33  1  0.09789500  0.50000000  0.86067900  1
  P  P34  1  0.09743100  0.50000000  0.19419700  1
  P  P35  1  0.09792000  0.50000000  0.52778300  1
  O  O36  1  0.95969600  0.50000000  0.23623600  1
  O  O37  1  0.96067800  0.50000000  0.56989000  1
  O  O38  1  0.96026800  0.50000000  0.90286400  1
  O  O39  1  0.90451400  0.00000000  0.57798000  1
  O  O40  1  0.90396300  0.00000000  0.91358700  1
  O  O41  1  0.90143300  0.00000000  0.24589100  1
  O  O42  1  0.83699500  0.79893000  0.09228800  1
  O  O43  1  0.83699500  0.20107000  0.09228800  1
  O  O44  1  0.83766900  0.79818200  0.42532300  1
  O  O45  1  0.83766900  0.20181800  0.42532300  1
  O  O46  1  0.83919500  0.79810000  0.76084700  1
  O  O47  1  0.83919500  0.20190000  0.76084700  1
  O  O48  1  0.65999900  0.29813500  0.59427900  1
  O  O49  1  0.65999900  0.70186500  0.59427900  1
  O  O50  1  0.66268900  0.29684500  0.26317500  1
  O  O51  1  0.66268900  0.70315500  0.26317500  1
  O  O52  1  0.66282000  0.29685400  0.92997400  1
  O  O53  1  0.66282000  0.70314600  0.92997400  1
  O  O54  1  0.59323200  0.50000000  0.41415800  1
  O  O55  1  0.59376500  0.50000000  0.08123800  1
  O  O56  1  0.59481500  0.50000000  0.74673700  1
  O  O57  1  0.54179000  0.00000000  0.40153700  1
  O  O58  1  0.54211700  0.00000000  0.06876400  1
  O  O59  1  0.53955100  0.00000000  0.73670900  1
  O  O60  1  0.45430500  0.50000000  0.26441400  1
  O  O61  1  0.45475600  0.50000000  0.93129800  1
  O  O62  1  0.45142000  0.50000000  0.59892700  1
  O  O63  1  0.40063500  0.00000000  0.25284200  1
  O  O64  1  0.40188200  0.00000000  0.91965600  1
  O  O65  1  0.40177500  0.00000000  0.58649300  1
  O  O66  1  0.33369700  0.79750300  0.07195600  1
  O  O67  1  0.33370300  0.79765000  0.40557100  1
  O  O68  1  0.33165000  0.79646700  0.73869900  1
  O  O69  1  0.33165000  0.20353300  0.73869900  1
  O  O70  1  0.33369700  0.20249700  0.07195600  1
  O  O71  1  0.33370300  0.20235000  0.40557100  1
  O  O72  1  0.16764900  0.29600900  0.90507500  1
  O  O73  1  0.16764900  0.70399100  0.90507500  1
  O  O74  1  0.16714500  0.29584600  0.23842400  1
  O  O75  1  0.16875500  0.29665300  0.57179800  1
  O  O76  1  0.16714500  0.70415400  0.23842400  1
  O  O77  1  0.16875500  0.70334700  0.57179800  1
  O  O78  1  0.09811200  0.50000000  0.75303700  1
  O  O79  1  0.09807800  0.50000000  0.41986700  1
  O  O80  1  0.09779100  0.50000000  0.08660500  1
  O  O81  1  0.04730600  0.00000000  0.76576400  1
  O  O82  1  0.04584200  0.00000000  0.09935600  1
  O  O83  1  0.04671800  0.00000000  0.43048400  1
