# generated using pymatgen
data_ZrTi2O6
_symmetry_space_group_name_H-M   'P 1'
_cell_length_a   4.74412400
_cell_length_b   5.67317420
_cell_length_c   15.18740747
_cell_angle_alpha   89.95774041
_cell_angle_beta   89.10532539
_cell_angle_gamma   89.93917117
_symmetry_Int_Tables_number   1
_chemical_formula_structural   ZrTi2O6
_chemical_formula_sum   'Zr4 Ti8 O24'
_cell_volume   408.70738905
_cell_formula_units_Z   4
loop_
 _symmetry_equiv_pos_site_id
 _symmetry_equiv_pos_as_xyz
  1  'x, y, z'
loop_
 _atom_site_type_symbol
 _atom_site_label
 _atom_site_symmetry_multiplicity
 _atom_site_fract_x
 _atom_site_fract_y
 _atom_site_fract_z
 _atom_site_occupancy
  Zr  Zr0  1  0.00451800  0.17861100  0.07935000  1
  Zr  Zr1  1  0.00172100  0.18937900  0.75171300  1
  Zr  Zr2  1  0.99597500  0.81039900  0.58273700  1
  Zr  Zr3  1  0.50127900  0.32138600  0.25308400  1
  Ti  Ti4  1  0.00107600  0.18430300  0.41873200  1
  Ti  Ti5  1  0.99420900  0.82143900  0.25136500  1
  Ti  Ti6  1  0.00095100  0.80959000  0.91557900  1
  Ti  Ti7  1  0.49930200  0.32554000  0.58115100  1
  Ti  Ti8  1  0.49762700  0.67826600  0.08213400  1
  Ti  Ti9  1  0.50646400  0.32198800  0.91750900  1
  Ti  Ti10  1  0.49555300  0.68402900  0.41487200  1
  Ti  Ti11  1  0.49848300  0.67429600  0.75166500  1
  O  O12  1  0.20041900  0.11210600  0.31065000  1
  O  O13  1  0.23759600  0.11558100  0.63531300  1
  O  O14  1  0.24545500  0.88007500  0.14226000  1
  O  O15  1  0.24166900  0.11101500  0.96547500  1
  O  O16  1  0.22812300  0.88700300  0.46761500  1
  O  O17  1  0.22891000  0.87381000  0.80663800  1
  O  O18  1  0.26807900  0.62593600  0.30848000  1
  O  O19  1  0.25443900  0.38435500  0.47469500  1
  O  O20  1  0.30089900  0.39192000  0.81170900  1
  O  O21  1  0.27666000  0.60356000  0.64777100  1
  O  O22  1  0.26606500  0.62203300  0.97493800  1
  O  O23  1  0.28687800  0.39903100  0.13809600  1
  O  O24  1  0.70942300  0.39279500  0.02331900  1
  O  O25  1  0.74421800  0.62167400  0.19131500  1
  O  O26  1  0.72220800  0.39526600  0.68518000  1
  O  O27  1  0.73412400  0.38709500  0.36634800  1
  O  O28  1  0.69268400  0.61367700  0.52228600  1
  O  O29  1  0.74575400  0.61373700  0.85738700  1
  O  O30  1  0.78627200  0.09855400  0.19496900  1
  O  O31  1  0.77512100  0.87128900  0.02431000  1
  O  O32  1  0.76580300  0.12237500  0.52619700  1
  O  O33  1  0.76046100  0.87808800  0.35911700  1
  O  O34  1  0.76030500  0.88588100  0.69855600  1
  O  O35  1  0.77127300  0.11391700  0.86748600  1
