# generated using pymatgen
data_Li5Ti2Ni5O12
_symmetry_space_group_name_H-M   'P 1'
_cell_length_a   5.06026400
_cell_length_b   8.88486600
_cell_length_c   9.78247201
_cell_angle_alpha   90.00000000
_cell_angle_beta   99.84093891
_cell_angle_gamma   90.00000000
_symmetry_Int_Tables_number   1
_chemical_formula_structural   Li5Ti2Ni5O12
_chemical_formula_sum   'Li10 Ti4 Ni10 O24'
_cell_volume   433.34620334
_cell_formula_units_Z   2
loop_
 _symmetry_equiv_pos_site_id
 _symmetry_equiv_pos_as_xyz
  1  'x, y, z'
loop_
 _atom_site_type_symbol
 _atom_site_label
 _atom_site_symmetry_multiplicity
 _atom_site_fract_x
 _atom_site_fract_y
 _atom_site_fract_z
 _atom_site_occupancy
  Li  Li0  1  0.75371650  0.92351350  0.24613800  1
  Li  Li1  1  0.25221350  0.57906850  0.75589700  1
  Li  Li2  1  0.24628350  0.92351350  0.75386200  1
  Li  Li3  1  0.74778650  0.57906850  0.24410300  1
  Li  Li4  1  0.00000000  0.91635700  0.00000000  1
  Li  Li5  1  0.25371650  0.42351350  0.24613800  1
  Li  Li6  1  0.75221350  0.07906850  0.75589700  1
  Li  Li7  1  0.74628350  0.42351350  0.75386200  1
  Li  Li8  1  0.24778650  0.07906850  0.24410300  1
  Li  Li9  1  0.50000000  0.41635700  0.00000000  1
  Ti  Ti10  1  0.50000000  0.74593300  0.00000000  1
  Ti  Ti11  1  0.00000000  0.74770800  0.50000000  1
  Ti  Ti12  1  0.00000000  0.24593300  0.00000000  1
  Ti  Ti13  1  0.50000000  0.24770800  0.50000000  1
  Ni  Ni14  1  0.50000000  0.58221500  0.50000000  1
  Ni  Ni15  1  0.75370500  0.75300000  0.75464000  1
  Ni  Ni16  1  0.24629500  0.75300000  0.24536000  1
  Ni  Ni17  1  0.50000000  0.91699600  0.50000000  1
  Ni  Ni18  1  0.00000000  0.58049300  0.00000000  1
  Ni  Ni19  1  0.00000000  0.08221500  0.50000000  1
  Ni  Ni20  1  0.25370500  0.25300000  0.75464000  1
  Ni  Ni21  1  0.74629500  0.25300000  0.24536000  1
  Ni  Ni22  1  0.00000000  0.41699600  0.50000000  1
  Ni  Ni23  1  0.50000000  0.08049300  0.00000000  1
  O  O24  1  0.62231750  0.59659250  0.87884000  1
  O  O25  1  0.37768250  0.59659250  0.12116000  1
  O  O26  1  0.63682500  0.74991800  0.38201900  1
  O  O27  1  0.36317500  0.74991800  0.61798100  1
  O  O28  1  0.61108050  0.91041550  0.88223000  1
  O  O29  1  0.38891950  0.91041550  0.11777000  1
  O  O30  1  0.12199950  0.59339550  0.38036600  1
  O  O31  1  0.87800050  0.59339550  0.61963400  1
  O  O32  1  0.13331300  0.74232000  0.88446200  1
  O  O33  1  0.86668700  0.74232000  0.11553800  1
  O  O34  1  0.12157900  0.90692400  0.38025600  1
  O  O35  1  0.87842100  0.90692400  0.61974400  1
  O  O36  1  0.12231750  0.09659250  0.87884000  1
  O  O37  1  0.87768250  0.09659250  0.12116000  1
  O  O38  1  0.13682500  0.24991800  0.38201900  1
  O  O39  1  0.86317500  0.24991800  0.61798100  1
  O  O40  1  0.11108050  0.41041550  0.88223000  1
  O  O41  1  0.88891950  0.41041550  0.11777000  1
  O  O42  1  0.62199950  0.09339550  0.38036600  1
  O  O43  1  0.37800050  0.09339550  0.61963400  1
  O  O44  1  0.63331300  0.24232000  0.88446200  1
  O  O45  1  0.36668700  0.24232000  0.11553800  1
  O  O46  1  0.62157900  0.40692400  0.38025600  1
  O  O47  1  0.37842100  0.40692400  0.61974400  1
