# generated using pymatgen
data_InH11S2O13
_symmetry_space_group_name_H-M   'P 1'
_cell_length_a   9.28217800
_cell_length_b   10.89719600
_cell_length_c   10.53276058
_cell_angle_alpha   90.00000000
_cell_angle_beta   99.51334249
_cell_angle_gamma   90.00000000
_symmetry_Int_Tables_number   1
_chemical_formula_structural   InH11S2O13
_chemical_formula_sum   'In4 H44 S8 O52'
_cell_volume   1050.73360914
_cell_formula_units_Z   4
loop_
 _symmetry_equiv_pos_site_id
 _symmetry_equiv_pos_as_xyz
  1  'x, y, z'
loop_
 _atom_site_type_symbol
 _atom_site_label
 _atom_site_symmetry_multiplicity
 _atom_site_fract_x
 _atom_site_fract_y
 _atom_site_fract_z
 _atom_site_occupancy
  In  In0  1  0.59351500  0.63732100  0.20880500  1
  In  In1  1  0.09351500  0.86267900  0.20880500  1
  In  In2  1  0.90648500  0.13732100  0.79119500  1
  In  In3  1  0.40648500  0.36267900  0.79119500  1
  H  H4  1  0.89545100  0.67723800  0.08849200  1
  H  H5  1  0.56428500  0.86975200  0.09507100  1
  H  H6  1  0.39545100  0.82276200  0.08849200  1
  H  H7  1  0.59279200  0.30957100  0.14449200  1
  H  H8  1  0.96246100  0.20997300  0.24899900  1
  H  H9  1  0.06428500  0.63024800  0.09507100  1
  H  H10  1  0.09279200  0.19042900  0.14449200  1
  H  H11  1  0.58152600  0.17727100  0.22286800  1
  H  H12  1  0.46246100  0.29002700  0.24899900  1
  H  H13  1  0.82231500  0.48028700  0.32363400  1
  H  H14  1  0.84337800  0.08169800  0.34305700  1
  H  H15  1  0.57487400  0.97654300  0.34639600  1
  H  H16  1  0.08152600  0.32272900  0.22286800  1
  H  H17  1  0.82453500  0.21396800  0.39310600  1
  H  H18  1  0.32231500  0.01971300  0.32363400  1
  H  H19  1  0.69660100  0.47251200  0.40947300  1
  H  H20  1  0.34337800  0.41830200  0.34305700  1
  H  H21  1  0.54744600  0.09650200  0.41831300  1
  H  H22  1  0.07487400  0.52345700  0.34639600  1
  H  H23  1  0.32453500  0.28603200  0.39310600  1
  H  H24  1  0.19660100  0.02748800  0.40947300  1
  H  H25  1  0.04744600  0.40349800  0.41831300  1
  H  H26  1  0.95255400  0.59650200  0.58168700  1
  H  H27  1  0.80339900  0.97251200  0.59052700  1
  H  H28  1  0.67546500  0.71396800  0.60689400  1
  H  H29  1  0.92512600  0.47654300  0.65360400  1
  H  H30  1  0.45255400  0.90349800  0.58168700  1
  H  H31  1  0.65662200  0.58169800  0.65694300  1
  H  H32  1  0.30339900  0.52748800  0.59052700  1
  H  H33  1  0.67768500  0.98028700  0.67636600  1
  H  H34  1  0.17546500  0.78603200  0.60689400  1
  H  H35  1  0.91847400  0.67727100  0.77713200  1
  H  H36  1  0.42512600  0.02345700  0.65360400  1
  H  H37  1  0.15662200  0.91830200  0.65694300  1
  H  H38  1  0.17768500  0.51971300  0.67636600  1
  H  H39  1  0.53753900  0.70997300  0.75100100  1
  H  H40  1  0.41847400  0.82272900  0.77713200  1
  H  H41  1  0.90720800  0.80957100  0.85550800  1
  H  H42  1  0.93571500  0.36975200  0.90492900  1
  H  H43  1  0.03753900  0.79002700  0.75100100  1
  H  H44  1  0.40720800  0.69042900  0.85550800  1
  H  H45  1  0.60454900  0.17723800  0.91150800  1
  H  H46  1  0.43571500  0.13024800  0.90492900  1
  H  H47  1  0.10454900  0.32276200  0.91150800  1
  S  S48  1  0.79176400  0.98079300  0.02564200  1
  S  S49  1  0.29176400  0.51920700  0.02564200  1
  S  S50  1  0.85312500  0.80902600  0.39839400  1
  S  S51  1  0.35312500  0.69097400  0.39839400  1
  S  S52  1  0.64687500  0.30902600  0.60160600  1
  S  S53  1  0.14687500  0.19097400  0.60160600  1
  S  S54  1  0.70823600  0.48079300  0.97435800  1
  S  S55  1  0.20823600  0.01920700  0.97435800  1
  O  O56  1  0.69912200  0.37117500  0.05275800  1
  O  O57  1  0.71776800  0.59682500  0.05685200  1
  O  O58  1  0.92848700  0.99453300  0.12624400  1
  O  O59  1  0.66288000  0.98365000  0.08956600  1
  O  O60  1  0.19912200  0.12882500  0.05275800  1
  O  O61  1  0.49909300  0.79803000  0.10885300  1
  O  O62  1  0.21776800  0.90317500  0.05685200  1
  O  O63  1  0.42848700  0.50546700  0.12624400  1
  O  O64  1  0.16288000  0.51635000  0.08956600  1
  O  O65  1  0.52992800  0.25154600  0.18719400  1
  O  O66  1  0.99909300  0.70197000  0.10885300  1
  O  O67  1  0.77864600  0.76232600  0.27031100  1
  O  O68  1  0.00436600  0.45661400  0.34562300  1
  O  O69  1  0.84906100  0.16883800  0.31910100  1
  O  O70  1  0.02992800  0.24845400  0.18719400  1
  O  O71  1  0.71293500  0.48351200  0.31927900  1
  O  O72  1  0.27864600  0.73767400  0.27031100  1
  O  O73  1  0.50436600  0.04338600  0.34562300  1
  O  O74  1  0.34906100  0.33116200  0.31910100  1
  O  O75  1  0.79042900  0.93093000  0.42450700  1
  O  O76  1  0.21293500  0.01648800  0.31927900  1
  O  O77  1  0.51250800  0.67405000  0.38689800  1
  O  O78  1  0.84275500  0.72214700  0.50268500  1
  O  O79  1  0.29042900  0.56907000  0.42450700  1
  O  O80  1  0.01250800  0.82595000  0.38689800  1
  O  O81  1  0.65724500  0.22214700  0.49731500  1
  O  O82  1  0.34275500  0.77785300  0.50268500  1
  O  O83  1  0.98749200  0.17405000  0.61310200  1
  O  O84  1  0.70957100  0.43093000  0.57549300  1
  O  O85  1  0.15724500  0.27785300  0.49731500  1
  O  O86  1  0.48749200  0.32595000  0.61310200  1
  O  O87  1  0.78706500  0.98351200  0.68072100  1
  O  O88  1  0.20957100  0.06907000  0.57549300  1
  O  O89  1  0.65093900  0.66883800  0.68089900  1
  O  O90  1  0.49563400  0.95661400  0.65437700  1
  O  O91  1  0.72135400  0.26232600  0.72968900  1
  O  O92  1  0.28706500  0.51648800  0.68072100  1
  O  O93  1  0.97007200  0.75154600  0.81280600  1
  O  O94  1  0.15093900  0.83116200  0.68089900  1
  O  O95  1  0.99563400  0.54338600  0.65437700  1
  O  O96  1  0.22135400  0.23767400  0.72968900  1
  O  O97  1  0.00090700  0.29803000  0.89114700  1
  O  O98  1  0.47007200  0.74845400  0.81280600  1
  O  O99  1  0.83712000  0.48365000  0.91043400  1
  O  O100  1  0.57151300  0.49453300  0.87375600  1
  O  O101  1  0.78223200  0.09682500  0.94314800  1
  O  O102  1  0.50090700  0.20197000  0.89114700  1
  O  O103  1  0.80087800  0.87117500  0.94724200  1
  O  O104  1  0.33712000  0.01635000  0.91043400  1
  O  O105  1  0.07151300  0.00546700  0.87375600  1
  O  O106  1  0.28223200  0.40317500  0.94314800  1
  O  O107  1  0.30087800  0.62882500  0.94724200  1
