# generated using pymatgen
data_NaFe(PO3)3
_symmetry_space_group_name_H-M   'P 1'
_cell_length_a   8.69311100
_cell_length_b   8.77609400
_cell_length_c   9.03868300
_cell_angle_alpha   90.00000000
_cell_angle_beta   90.00000000
_cell_angle_gamma   90.00000000
_symmetry_Int_Tables_number   1
_chemical_formula_structural   NaFe(PO3)3
_chemical_formula_sum   'Na4 Fe4 P12 O36'
_cell_volume   689.57521998
_cell_formula_units_Z   4
loop_
 _symmetry_equiv_pos_site_id
 _symmetry_equiv_pos_as_xyz
  1  'x, y, z'
loop_
 _atom_site_type_symbol
 _atom_site_label
 _atom_site_symmetry_multiplicity
 _atom_site_fract_x
 _atom_site_fract_y
 _atom_site_fract_z
 _atom_site_occupancy
  Na  Na0  1  0.88183600  0.59752000  0.35705800  1
  Na  Na1  1  0.61816400  0.40248000  0.85705800  1
  Na  Na2  1  0.11816400  0.09752000  0.14294200  1
  Na  Na3  1  0.38183600  0.90248000  0.64294200  1
  Fe  Fe4  1  0.60709200  0.62254900  0.59077000  1
  Fe  Fe5  1  0.89290800  0.37745100  0.09077000  1
  Fe  Fe6  1  0.39290800  0.12254900  0.90923000  1
  Fe  Fe7  1  0.10709200  0.87745100  0.40923000  1
  P  P8  1  0.07401800  0.71817300  0.06224700  1
  P  P9  1  0.23000600  0.55646000  0.55875600  1
  P  P10  1  0.55788300  0.55231300  0.18988200  1
  P  P11  1  0.94211700  0.44768700  0.68988200  1
  P  P12  1  0.26999400  0.44354000  0.05875600  1
  P  P13  1  0.42598200  0.28182700  0.56224700  1
  P  P14  1  0.92598200  0.21817300  0.43775300  1
  P  P15  1  0.76999400  0.05646000  0.94124400  1
  P  P16  1  0.44211700  0.05231300  0.31011800  1
  P  P17  1  0.05788300  0.94768700  0.81011800  1
  P  P18  1  0.73000600  0.94354000  0.44124400  1
  P  P19  1  0.57401800  0.78182700  0.93775300  1
  O  O20  1  0.53041500  0.70631900  0.09462500  1
  O  O21  1  0.36597800  0.64330900  0.61785300  1
  O  O22  1  0.62616900  0.66166300  0.83111200  1
  O  O23  1  0.13987300  0.63046400  0.43551800  1
  O  O24  1  0.94369500  0.61705900  0.11070800  1
  O  O25  1  0.21734800  0.61184100  0.00866900  1
  O  O26  1  0.60178600  0.59631700  0.34403800  1
  O  O27  1  0.83821300  0.55503300  0.60564200  1
  O  O28  1  0.11455500  0.51789500  0.69487400  1
  O  O29  1  0.38544500  0.48210500  0.19487400  1
  O  O30  1  0.66178700  0.44496700  0.10564200  1
  O  O31  1  0.89821400  0.40368300  0.84403800  1
  O  O32  1  0.28265200  0.38815900  0.50866900  1
  O  O33  1  0.55630500  0.38294100  0.61070800  1
  O  O34  1  0.36012700  0.36953600  0.93551800  1
  O  O35  1  0.87383100  0.33833700  0.33111200  1
  O  O36  1  0.13402200  0.35669100  0.11785300  1
  O  O37  1  0.96958500  0.29368100  0.59462500  1
  O  O38  1  0.46958500  0.20631900  0.40537500  1
  O  O39  1  0.63402200  0.14330900  0.88214700  1
  O  O40  1  0.37383100  0.16166300  0.66888800  1
  O  O41  1  0.86012700  0.13046400  0.06448200  1
  O  O42  1  0.05630500  0.11705900  0.38929200  1
  O  O43  1  0.78265200  0.11184100  0.49133100  1
  O  O44  1  0.39821400  0.09631700  0.15596200  1
  O  O45  1  0.16178700  0.05503300  0.89435800  1
  O  O46  1  0.88544500  0.01789500  0.80512600  1
  O  O47  1  0.61455500  0.98210500  0.30512600  1
  O  O48  1  0.33821300  0.94496700  0.39435800  1
  O  O49  1  0.10178600  0.90368300  0.65596200  1
  O  O50  1  0.71734800  0.88815900  0.99133100  1
  O  O51  1  0.44369500  0.88294100  0.88929200  1
  O  O52  1  0.63987300  0.86953600  0.56448200  1
  O  O53  1  0.12616900  0.83833700  0.16888800  1
  O  O54  1  0.86597800  0.85669100  0.38214700  1
  O  O55  1  0.03041500  0.79368100  0.90537500  1
