# generated using pymatgen
data_Li4CrFe3O8
_symmetry_space_group_name_H-M   'P 1'
_cell_length_a   5.18540979
_cell_length_b   5.96264350
_cell_length_c   10.75287244
_cell_angle_alpha   106.08938588
_cell_angle_beta   94.55218377
_cell_angle_gamma   106.71082380
_symmetry_Int_Tables_number   1
_chemical_formula_structural   Li4CrFe3O8
_chemical_formula_sum   'Li8 Cr2 Fe6 O16'
_cell_volume   301.34768874
_cell_formula_units_Z   2
loop_
 _symmetry_equiv_pos_site_id
 _symmetry_equiv_pos_as_xyz
  1  'x, y, z'
loop_
 _atom_site_type_symbol
 _atom_site_label
 _atom_site_symmetry_multiplicity
 _atom_site_fract_x
 _atom_site_fract_y
 _atom_site_fract_z
 _atom_site_occupancy
  Li  Li0  1  0.00141683  0.56320709  0.12527344  1
  Li  Li1  1  0.99975337  0.93822154  0.87425947  1
  Li  Li2  1  0.99829261  0.18660333  0.37449143  1
  Li  Li3  1  0.00170738  0.81339668  0.62550857  1
  Li  Li4  1  0.00024662  0.06177846  0.12574053  1
  Li  Li5  1  0.99858316  0.43679290  0.87472656  1
  Li  Li6  1  0.99995700  0.68862191  0.37420310  1
  Li  Li7  1  0.00004300  0.31137809  0.62579690  1
  Cr  Cr8  1  0.50022902  0.87501892  0.25016206  1
  Cr  Cr9  1  0.49977097  0.12498108  0.74983794  1
  Fe  Fe10  1  0.49981855  0.75005560  0.00001904  1
  Fe  Fe11  1  0.49991956  0.37505704  0.24982166  1
  Fe  Fe12  1  0.50000000  0.00000000  0.50000000  1
  Fe  Fe13  1  0.50018144  0.24994440  0.99998096  1
  Fe  Fe14  1  0.50008044  0.62494296  0.75017834  1
  Fe  Fe15  1  0.50000000  0.50000000  0.50000000  1
  O  O16  1  0.27150354  0.16025920  0.56524295  1
  O  O17  1  0.72949588  0.33938698  0.43578501  1
  O  O18  1  0.26921190  0.41036415  0.06345037  1
  O  O19  1  0.73078809  0.58963585  0.93654963  1
  O  O20  1  0.72775835  0.96490207  0.68610397  1
  O  O21  1  0.27127110  0.78761663  0.81373726  1
  O  O22  1  0.27224164  0.03509793  0.31389603  1
  O  O23  1  0.72872890  0.21238337  0.18626274  1
  O  O24  1  0.27050411  0.66061302  0.56421499  1
  O  O25  1  0.72849645  0.83974080  0.43475704  1
  O  O26  1  0.27255483  0.91042537  0.06589074  1
  O  O27  1  0.72744516  0.08957463  0.93410925  1
  O  O28  1  0.27232351  0.28452424  0.81400492  1
  O  O29  1  0.27128062  0.53711471  0.31371072  1
  O  O30  1  0.72871938  0.46288529  0.68628928  1
  O  O31  1  0.72767648  0.71547576  0.18599508  1
