# generated using pymatgen
data_Li3Co2(SiO4)2
_symmetry_space_group_name_H-M   'P 1'
_cell_length_a   5.07078700
_cell_length_b   6.33896800
_cell_length_c   10.78668621
_cell_angle_alpha   90.00000000
_cell_angle_beta   90.08620382
_cell_angle_gamma   90.00000000
_symmetry_Int_Tables_number   1
_chemical_formula_structural   Li3Co2(SiO4)2
_chemical_formula_sum   'Li6 Co4 Si4 O16'
_cell_volume   346.72206547
_cell_formula_units_Z   2
loop_
 _symmetry_equiv_pos_site_id
 _symmetry_equiv_pos_as_xyz
  1  'x, y, z'
loop_
 _atom_site_type_symbol
 _atom_site_label
 _atom_site_symmetry_multiplicity
 _atom_site_fract_x
 _atom_site_fract_y
 _atom_site_fract_z
 _atom_site_occupancy
  Li  Li0  1  0.23808800  0.76717500  0.16926800  1
  Li  Li1  1  0.23808800  0.23282500  0.66926800  1
  Li  Li2  1  0.74092700  0.24648800  0.33064300  1
  Li  Li3  1  0.74444000  0.49930200  0.09004000  1
  Li  Li4  1  0.74444000  0.50069800  0.59004000  1
  Li  Li5  1  0.74092700  0.75351200  0.83064300  1
  Co  Co6  1  0.74006800  0.98979500  0.58326200  1
  Co  Co7  1  0.74006800  0.01020500  0.08326200  1
  Co  Co8  1  0.23741700  0.48323900  0.91217100  1
  Co  Co9  1  0.23741700  0.51676100  0.41217100  1
  Si  Si10  1  0.73822500  0.75791800  0.33247000  1
  Si  Si11  1  0.73822500  0.24208200  0.83247000  1
  Si  Si12  1  0.23578400  0.25739800  0.16745600  1
  Si  Si13  1  0.23578400  0.74260200  0.66745600  1
  O  O14  1  0.41340100  0.72794900  0.32982400  1
  O  O15  1  0.84402400  0.75677100  0.18734900  1
  O  O16  1  0.35904800  0.95935100  0.61331500  1
  O  O17  1  0.80878000  0.97416400  0.40582800  1
  O  O18  1  0.80878000  0.02583600  0.90582800  1
  O  O19  1  0.35904800  0.04064900  0.11331500  1
  O  O20  1  0.84402400  0.24322900  0.68734900  1
  O  O21  1  0.41340100  0.27205100  0.82982400  1
  O  O22  1  0.91215700  0.25550100  0.16718600  1
  O  O23  1  0.34487300  0.29604100  0.31131900  1
  O  O24  1  0.86168400  0.45829300  0.90454900  1
  O  O25  1  0.33187800  0.46978600  0.08270400  1
  O  O26  1  0.33187800  0.53021400  0.58270400  1
  O  O27  1  0.86168400  0.54170700  0.40454900  1
  O  O28  1  0.34487300  0.70395900  0.81131900  1
  O  O29  1  0.91215700  0.74449900  0.66718600  1
