# generated using pymatgen
data_Sr3Hf2O7
_symmetry_space_group_name_H-M   'P 1'
_cell_length_a   4.13178800
_cell_length_b   4.13178800
_cell_length_c   21.03275600
_cell_angle_alpha   90.00000000
_cell_angle_beta   90.00000000
_cell_angle_gamma   90.00000000
_symmetry_Int_Tables_number   1
_chemical_formula_structural   Sr3Hf2O7
_chemical_formula_sum   'Sr6 Hf4 O14'
_cell_volume   359.06431331
_cell_formula_units_Z   2
loop_
 _symmetry_equiv_pos_site_id
 _symmetry_equiv_pos_as_xyz
  1  'x, y, z'
loop_
 _atom_site_type_symbol
 _atom_site_label
 _atom_site_symmetry_multiplicity
 _atom_site_fract_x
 _atom_site_fract_y
 _atom_site_fract_z
 _atom_site_occupancy
  Sr  Sr0  1  0.50000000  0.50000000  0.00000000  1
  Sr  Sr1  1  0.50000000  0.50000000  0.18651600  1
  Sr  Sr2  1  0.00000000  0.00000000  0.31348400  1
  Sr  Sr3  1  0.00000000  0.00000000  0.50000000  1
  Sr  Sr4  1  0.00000000  0.00000000  0.68651600  1
  Sr  Sr5  1  0.50000000  0.50000000  0.81348400  1
  Hf  Hf6  1  0.50000000  0.50000000  0.40057300  1
  Hf  Hf7  1  0.00000000  0.00000000  0.09942700  1
  Hf  Hf8  1  0.00000000  0.00000000  0.90057300  1
  Hf  Hf9  1  0.50000000  0.50000000  0.59942700  1
  O  O10  1  0.00000000  0.00000000  0.00000000  1
  O  O11  1  0.50000000  0.00000000  0.09767700  1
  O  O12  1  0.50000000  0.00000000  0.40232300  1
  O  O13  1  0.50000000  0.50000000  0.30176500  1
  O  O14  1  0.00000000  0.00000000  0.19823500  1
  O  O15  1  0.00000000  0.50000000  0.09767700  1
  O  O16  1  0.00000000  0.50000000  0.40232300  1
  O  O17  1  0.50000000  0.50000000  0.50000000  1
  O  O18  1  0.00000000  0.50000000  0.59767700  1
  O  O19  1  0.00000000  0.50000000  0.90232300  1
  O  O20  1  0.00000000  0.00000000  0.80176500  1
  O  O21  1  0.50000000  0.50000000  0.69823500  1
  O  O22  1  0.50000000  0.00000000  0.59767700  1
  O  O23  1  0.50000000  0.00000000  0.90232300  1
