# generated using pymatgen
data_Ge2N2O
_symmetry_space_group_name_H-M   'P 1'
_cell_length_a   9.96831000
_cell_length_b   5.41171800
_cell_length_c   5.97426736
_cell_angle_alpha   90.00000000
_cell_angle_beta   122.03500340
_cell_angle_gamma   90.00000000
_symmetry_Int_Tables_number   1
_chemical_formula_structural   Ge2N2O
_chemical_formula_sum   'Ge8 N8 O4'
_cell_volume   273.20958213
_cell_formula_units_Z   4
loop_
 _symmetry_equiv_pos_site_id
 _symmetry_equiv_pos_as_xyz
  1  'x, y, z'
loop_
 _atom_site_type_symbol
 _atom_site_label
 _atom_site_symmetry_multiplicity
 _atom_site_fract_x
 _atom_site_fract_y
 _atom_site_fract_z
 _atom_site_occupancy
  Ge  Ge0  1  0.03737700  0.58559200  0.63281600  1
  Ge  Ge1  1  0.03737700  0.41440800  0.13281600  1
  Ge  Ge2  1  0.21145700  0.07526600  0.62390000  1
  Ge  Ge3  1  0.21145700  0.92473400  0.12390000  1
  Ge  Ge4  1  0.53737700  0.08559200  0.63281600  1
  Ge  Ge5  1  0.53737700  0.91440800  0.13281600  1
  Ge  Ge6  1  0.71145700  0.57526600  0.62390000  1
  Ge  Ge7  1  0.71145700  0.42473400  0.12390000  1
  N  N8  1  0.13240950  0.39086450  0.49846000  1
  N  N9  1  0.13240950  0.60913550  0.99846000  1
  N  N10  1  0.33020350  0.97660850  0.48406900  1
  N  N11  1  0.33020350  0.02339150  0.98406900  1
  N  N12  1  0.63240950  0.89086450  0.49846000  1
  N  N13  1  0.63240950  0.10913550  0.99846000  1
  N  N14  1  0.83020350  0.47660850  0.48406900  1
  N  N15  1  0.83020350  0.52339150  0.98406900  1
  O  O16  1  0.03845350  0.88785750  0.51075400  1
  O  O17  1  0.03845350  0.11214250  0.01075400  1
  O  O18  1  0.53845350  0.38785750  0.51075400  1
  O  O19  1  0.53845350  0.61214250  0.01075400  1
