# generated using pymatgen
data_Ca2CdH24(ClO2)6
_symmetry_space_group_name_H-M   'P 1'
_cell_length_a   8.84195500
_cell_length_b   10.25631000
_cell_length_c   12.74744712
_cell_angle_alpha   90.00000000
_cell_angle_beta   113.47527742
_cell_angle_gamma   90.00000000
_symmetry_Int_Tables_number   1
_chemical_formula_structural   Ca2CdH24(ClO2)6
_chemical_formula_sum   'Ca4 Cd2 H48 Cl12 O24'
_cell_volume   1060.33202344
_cell_formula_units_Z   2
loop_
 _symmetry_equiv_pos_site_id
 _symmetry_equiv_pos_as_xyz
  1  'x, y, z'
loop_
 _atom_site_type_symbol
 _atom_site_label
 _atom_site_symmetry_multiplicity
 _atom_site_fract_x
 _atom_site_fract_y
 _atom_site_fract_z
 _atom_site_occupancy
  Ca  Ca0  1  0.73904000  0.46094800  0.86704500  1
  Ca  Ca1  1  0.26096000  0.96094800  0.63295500  1
  Ca  Ca2  1  0.26096000  0.53905200  0.13295500  1
  Ca  Ca3  1  0.73904000  0.03905200  0.36704500  1
  Cd  Cd4  1  0.00000000  0.50000000  0.50000000  1
  Cd  Cd5  1  0.00000000  0.00000000  0.00000000  1
  H  H6  1  0.83586200  0.65126400  0.72466200  1
  H  H7  1  0.16413800  0.15126400  0.77533800  1
  H  H8  1  0.16413800  0.34873600  0.27533800  1
  H  H9  1  0.83586200  0.84873600  0.22466200  1
  H  H10  1  0.93640900  0.70059700  0.85167600  1
  H  H11  1  0.06359100  0.20059700  0.64832400  1
  H  H12  1  0.06359100  0.29940300  0.14832400  1
  H  H13  1  0.93640900  0.79940300  0.35167600  1
  H  H14  1  0.44772100  0.47350600  0.63284500  1
  H  H15  1  0.55227900  0.97350600  0.86715500  1
  H  H16  1  0.55227900  0.52649400  0.36715500  1
  H  H17  1  0.44772100  0.02649400  0.13284500  1
  H  H18  1  0.59701200  0.52701000  0.61045600  1
  H  H19  1  0.40298800  0.02701000  0.88954400  1
  H  H20  1  0.40298800  0.47299000  0.38954400  1
  H  H21  1  0.59701200  0.97299000  0.11045600  1
  H  H22  1  0.42778500  0.59808900  0.88011900  1
  H  H23  1  0.57221500  0.09808900  0.61988100  1
  H  H24  1  0.57221500  0.40191100  0.11988100  1
  H  H25  1  0.42778500  0.90191100  0.38011900  1
  H  H26  1  0.58034800  0.69321500  0.92697800  1
  H  H27  1  0.41965200  0.19321500  0.57302200  1
  H  H28  1  0.41965200  0.30678500  0.07302200  1
  H  H29  1  0.58034800  0.80678500  0.42697800  1
  H  H30  1  0.80600400  0.31598100  0.66998400  1
  H  H31  1  0.19399600  0.81598100  0.83001600  1
  H  H32  1  0.19399600  0.68401900  0.33001600  1
  H  H33  1  0.80600400  0.18401900  0.16998400  1
  H  H34  1  0.81827300  0.21297800  0.76271400  1
  H  H35  1  0.18172700  0.71297800  0.73728600  1
  H  H36  1  0.18172700  0.78702200  0.23728600  1
  H  H37  1  0.81827300  0.28702200  0.26271400  1
  H  H38  1  0.38738000  0.34763100  0.79673100  1
  H  H39  1  0.61262000  0.84763100  0.70326900  1
  H  H40  1  0.61262000  0.65236900  0.20326900  1
  H  H41  1  0.38738000  0.15236900  0.29673100  1
  H  H42  1  0.50274100  0.22451700  0.83346700  1
  H  H43  1  0.49725900  0.72451700  0.66653300  1
  H  H44  1  0.49725900  0.77548300  0.16653300  1
  H  H45  1  0.50274100  0.27548300  0.33346700  1
  H  H46  1  0.89524400  0.53407500  0.12514300  1
  H  H47  1  0.10475600  0.03407500  0.37485700  1
  H  H48  1  0.10475600  0.46592500  0.87485700  1
  H  H49  1  0.89524400  0.96592500  0.62514300  1
  H  H50  1  0.88870300  0.65787600  0.05348400  1
  H  H51  1  0.11129700  0.15787600  0.44651600  1
  H  H52  1  0.11129700  0.34212400  0.94651600  1
  H  H53  1  0.88870300  0.84212400  0.55348400  1
  Cl  Cl54  1  0.16869200  0.49869800  0.72813300  1
  Cl  Cl55  1  0.83130800  0.99869800  0.77186700  1
  Cl  Cl56  1  0.83130800  0.50130200  0.27186700  1
  Cl  Cl57  1  0.16869200  0.00130200  0.22813300  1
  Cl  Cl58  1  0.23936400  0.36016200  0.47201600  1
  Cl  Cl59  1  0.76063600  0.86016200  0.02798400  1
  Cl  Cl60  1  0.76063600  0.63983800  0.52798400  1
  Cl  Cl61  1  0.23936400  0.13983800  0.97201600  1
  Cl  Cl62  1  0.84466300  0.28018200  0.51404600  1
  Cl  Cl63  1  0.15533700  0.78018200  0.98595400  1
  Cl  Cl64  1  0.15533700  0.71981800  0.48595400  1
  Cl  Cl65  1  0.84466300  0.21981800  0.01404600  1
  O  O66  1  0.84152600  0.64658800  0.80307400  1
  O  O67  1  0.15847400  0.14658800  0.69692600  1
  O  O68  1  0.15847400  0.35341200  0.19692600  1
  O  O69  1  0.84152600  0.85341200  0.30307400  1
  O  O70  1  0.54838300  0.52654500  0.66760400  1
  O  O71  1  0.45161700  0.02654500  0.83239600  1
  O  O72  1  0.45161700  0.47345500  0.33239600  1
  O  O73  1  0.54838300  0.97345500  0.16760400  1
  O  O74  1  0.54774200  0.60118200  0.90779100  1
  O  O75  1  0.45225800  0.10118200  0.59220900  1
  O  O76  1  0.45225800  0.39881800  0.09220900  1
  O  O77  1  0.54774200  0.89881800  0.40779100  1
  O  O78  1  0.79832500  0.30654100  0.74485900  1
  O  O79  1  0.20167500  0.80654100  0.75514100  1
  O  O80  1  0.20167500  0.69345900  0.25514100  1
  O  O81  1  0.79832500  0.19345900  0.24485900  1
  O  O82  1  0.50269200  0.31983800  0.82499900  1
  O  O83  1  0.49730800  0.81983800  0.67500100  1
  O  O84  1  0.49730800  0.68016200  0.17500100  1
  O  O85  1  0.50269200  0.18016200  0.32499900  1
  O  O86  1  0.90895700  0.56321600  0.05527900  1
  O  O87  1  0.09104300  0.06321600  0.44472100  1
  O  O88  1  0.09104300  0.43678400  0.94472100  1
  O  O89  1  0.90895700  0.93678400  0.55527900  1
