# generated using pymatgen
data_Li5VF8
_symmetry_space_group_name_H-M   'P 1'
_cell_length_a   5.82010000
_cell_length_b   8.55205200
_cell_length_c   5.96311100
_cell_angle_alpha   90.00000000
_cell_angle_beta   90.00000000
_cell_angle_gamma   90.00000000
_symmetry_Int_Tables_number   1
_chemical_formula_structural   Li5VF8
_chemical_formula_sum   'Li10 V2 F16'
_cell_volume   296.80668144
_cell_formula_units_Z   2
loop_
 _symmetry_equiv_pos_site_id
 _symmetry_equiv_pos_as_xyz
  1  'x, y, z'
loop_
 _atom_site_type_symbol
 _atom_site_label
 _atom_site_symmetry_multiplicity
 _atom_site_fract_x
 _atom_site_fract_y
 _atom_site_fract_z
 _atom_site_occupancy
  Li  Li0  1  0.25000000  0.25000000  0.22844700  1
  Li  Li1  1  0.25000000  0.25000000  0.77155300  1
  Li  Li2  1  0.50000000  0.00000000  0.00000000  1
  Li  Li3  1  0.25000000  0.75000000  0.22844700  1
  Li  Li4  1  0.25000000  0.75000000  0.77155300  1
  Li  Li5  1  0.75000000  0.75000000  0.22844700  1
  Li  Li6  1  0.75000000  0.75000000  0.77155300  1
  Li  Li7  1  0.00000000  0.50000000  0.00000000  1
  Li  Li8  1  0.75000000  0.25000000  0.22844700  1
  Li  Li9  1  0.75000000  0.25000000  0.77155300  1
  V  V10  1  0.50000000  0.00000000  0.50000000  1
  V  V11  1  0.00000000  0.50000000  0.50000000  1
  F  F12  1  0.50000000  0.23537000  0.50000000  1
  F  F13  1  0.50000000  0.23145000  0.00000000  1
  F  F14  1  0.27333000  0.00000000  0.25993300  1
  F  F15  1  0.27333000  0.00000000  0.74006700  1
  F  F16  1  0.72667000  0.00000000  0.25993300  1
  F  F17  1  0.72667000  0.00000000  0.74006700  1
  F  F18  1  0.50000000  0.76855000  0.00000000  1
  F  F19  1  0.50000000  0.76463000  0.50000000  1
  F  F20  1  0.00000000  0.73537000  0.50000000  1
  F  F21  1  0.00000000  0.73145000  0.00000000  1
  F  F22  1  0.77333000  0.50000000  0.25993300  1
  F  F23  1  0.77333000  0.50000000  0.74006700  1
  F  F24  1  0.22667000  0.50000000  0.25993300  1
  F  F25  1  0.22667000  0.50000000  0.74006700  1
  F  F26  1  0.00000000  0.26855000  0.00000000  1
  F  F27  1  0.00000000  0.26463000  0.50000000  1
