# generated using pymatgen
data_Li3NbV3O8
_symmetry_space_group_name_H-M   'P 1'
_cell_length_a   10.53716135
_cell_length_b   6.08252777
_cell_length_c   6.13640434
_cell_angle_alpha   90.00000000
_cell_angle_beta   125.26391404
_cell_angle_gamma   90.00000000
_symmetry_Int_Tables_number   1
_chemical_formula_structural   Li3NbV3O8
_chemical_formula_sum   'Li6 Nb2 V6 O16'
_cell_volume   321.12832878
_cell_formula_units_Z   2
loop_
 _symmetry_equiv_pos_site_id
 _symmetry_equiv_pos_as_xyz
  1  'x, y, z'
loop_
 _atom_site_type_symbol
 _atom_site_label
 _atom_site_symmetry_multiplicity
 _atom_site_fract_x
 _atom_site_fract_y
 _atom_site_fract_z
 _atom_site_occupancy
  Li  Li0  1  0.00000000  0.00000000  0.50000000  1
  Li  Li1  1  0.75000000  0.75000000  0.50000000  1
  Li  Li2  1  0.25000000  0.75000000  0.50000000  1
  Li  Li3  1  0.50000000  0.50000000  0.50000000  1
  Li  Li4  1  0.25000000  0.25000000  0.50000000  1
  Li  Li5  1  0.75000000  0.25000000  0.50000000  1
  Nb  Nb6  1  0.00000000  0.00000000  0.00000000  1
  Nb  Nb7  1  0.50000000  0.50000000  0.00000000  1
  V  V8  1  0.00000000  0.50000000  0.00000000  1
  V  V9  1  0.75000000  0.25000000  0.00000000  1
  V  V10  1  0.25000000  0.25000000  0.00000000  1
  V  V11  1  0.50000000  0.00000000  0.00000000  1
  V  V12  1  0.25000000  0.75000000  0.00000000  1
  V  V13  1  0.75000000  0.75000000  0.00000000  1
  O  O14  1  0.74838075  0.00000000  0.22184350  1
  O  O15  1  0.25161925  0.00000000  0.77815650  1
  O  O16  1  0.73492125  0.50000000  0.22836750  1
  O  O17  1  0.26507875  0.50000000  0.77163250  1
  O  O18  1  0.99066175  0.76435475  0.22347750  1
  O  O19  1  0.99066175  0.23564525  0.22347750  1
  O  O20  1  0.00933825  0.23564525  0.77652250  1
  O  O21  1  0.00933825  0.76435475  0.77652250  1
  O  O22  1  0.24838075  0.50000000  0.22184350  1
  O  O23  1  0.75161925  0.50000000  0.77815650  1
  O  O24  1  0.23492125  0.00000000  0.22836750  1
  O  O25  1  0.76507875  0.00000000  0.77163250  1
  O  O26  1  0.49066175  0.26435475  0.22347750  1
  O  O27  1  0.49066175  0.73564525  0.22347750  1
  O  O28  1  0.50933825  0.73564525  0.77652250  1
  O  O29  1  0.50933825  0.26435475  0.77652250  1
