# generated using pymatgen
data_Y(BO2)3
_symmetry_space_group_name_H-M   'P 1'
_cell_length_a   9.71253000
_cell_length_b   8.00751800
_cell_length_c   6.28516107
_cell_angle_alpha   90.00000000
_cell_angle_beta   126.20824988
_cell_angle_gamma   90.00000000
_symmetry_Int_Tables_number   1
_chemical_formula_structural   Y(BO2)3
_chemical_formula_sum   'Y4 B12 O24'
_cell_volume   394.41471606
_cell_formula_units_Z   4
loop_
 _symmetry_equiv_pos_site_id
 _symmetry_equiv_pos_as_xyz
  1  'x, y, z'
loop_
 _atom_site_type_symbol
 _atom_site_label
 _atom_site_symmetry_multiplicity
 _atom_site_fract_x
 _atom_site_fract_y
 _atom_site_fract_z
 _atom_site_occupancy
  Y  Y0  1  0.00000000  0.29630300  0.75000000  1
  Y  Y1  1  0.00000000  0.70369700  0.25000000  1
  Y  Y2  1  0.50000000  0.79630300  0.75000000  1
  Y  Y3  1  0.50000000  0.20369700  0.25000000  1
  B  B4  1  0.00000000  0.71723600  0.75000000  1
  B  B5  1  0.72399850  0.56447750  0.58596000  1
  B  B6  1  0.72399850  0.43552250  0.08596000  1
  B  B7  1  0.27600150  0.56447750  0.91404000  1
  B  B8  1  0.27600150  0.43552250  0.41404000  1
  B  B9  1  0.00000000  0.28276400  0.25000000  1
  B  B10  1  0.50000000  0.21723600  0.75000000  1
  B  B11  1  0.22399850  0.06447750  0.58596000  1
  B  B12  1  0.22399850  0.93552250  0.08596000  1
  B  B13  1  0.77600150  0.06447750  0.91404000  1
  B  B14  1  0.77600150  0.93552250  0.41404000  1
  B  B15  1  0.50000000  0.78276400  0.25000000  1
  O  O16  1  0.89860900  0.81077800  0.50383100  1
  O  O17  1  0.10509150  0.60715250  0.70658300  1
  O  O18  1  0.69881950  0.40773450  0.49640500  1
  O  O19  1  0.69881950  0.59226550  0.99640500  1
  O  O20  1  0.89490850  0.60715250  0.79341700  1
  O  O21  1  0.10139100  0.81077800  0.99616900  1
  O  O22  1  0.89860900  0.18922200  0.00383100  1
  O  O23  1  0.10509150  0.39284750  0.20658300  1
  O  O24  1  0.30118050  0.40773450  0.00359500  1
  O  O25  1  0.30118050  0.59226550  0.50359500  1
  O  O26  1  0.89490850  0.39284750  0.29341700  1
  O  O27  1  0.10139100  0.18922200  0.49616900  1
  O  O28  1  0.39860900  0.31077800  0.50383100  1
  O  O29  1  0.60509150  0.10715250  0.70658300  1
  O  O30  1  0.19881950  0.90773450  0.49640500  1
  O  O31  1  0.19881950  0.09226550  0.99640500  1
  O  O32  1  0.39490850  0.10715250  0.79341700  1
  O  O33  1  0.60139100  0.31077800  0.99616900  1
  O  O34  1  0.39860900  0.68922200  0.00383100  1
  O  O35  1  0.60509150  0.89284750  0.20658300  1
  O  O36  1  0.80118050  0.90773450  0.00359500  1
  O  O37  1  0.80118050  0.09226550  0.50359500  1
  O  O38  1  0.39490850  0.89284750  0.29341700  1
  O  O39  1  0.60139100  0.68922200  0.49616900  1
