# generated using pymatgen
data_Li2WS4
_symmetry_space_group_name_H-M   'P 1'
_cell_length_a   6.08285000
_cell_length_b   6.08285000
_cell_length_c   10.47845600
_cell_angle_alpha   90.00000000
_cell_angle_beta   90.00000000
_cell_angle_gamma   90.00000000
_symmetry_Int_Tables_number   1
_chemical_formula_structural   Li2WS4
_chemical_formula_sum   'Li4 W2 S8'
_cell_volume   387.71402236
_cell_formula_units_Z   2
loop_
 _symmetry_equiv_pos_site_id
 _symmetry_equiv_pos_as_xyz
  1  'x, y, z'
loop_
 _atom_site_type_symbol
 _atom_site_label
 _atom_site_symmetry_multiplicity
 _atom_site_fract_x
 _atom_site_fract_y
 _atom_site_fract_z
 _atom_site_occupancy
  Li  Li0  1  0.00000000  0.50000000  0.00000000  1
  Li  Li1  1  0.50000000  0.00000000  0.00000000  1
  Li  Li2  1  0.50000000  0.00000000  0.50000000  1
  Li  Li3  1  0.00000000  0.50000000  0.50000000  1
  W  W4  1  0.00000000  0.00000000  0.00000000  1
  W  W5  1  0.50000000  0.50000000  0.50000000  1
  S  S6  1  0.71245300  0.28754700  0.38106000  1
  S  S7  1  0.21245300  0.21245300  0.11894000  1
  S  S8  1  0.28754700  0.71245300  0.38106000  1
  S  S9  1  0.78754700  0.78754700  0.11894000  1
  S  S10  1  0.21245300  0.78754700  0.88106000  1
  S  S11  1  0.71245300  0.71245300  0.61894000  1
  S  S12  1  0.78754700  0.21245300  0.88106000  1
  S  S13  1  0.28754700  0.28754700  0.61894000  1
