# generated using pymatgen
data_LiMn2F5
_symmetry_space_group_name_H-M   'P 1'
_cell_length_a   11.54951600
_cell_length_b   10.73596200
_cell_length_c   10.98506098
_cell_angle_alpha   90.00000000
_cell_angle_beta   91.82907642
_cell_angle_gamma   90.00000000
_symmetry_Int_Tables_number   1
_chemical_formula_structural   LiMn2F5
_chemical_formula_sum   'Li12 Mn24 F60'
_cell_volume   1361.40044913
_cell_formula_units_Z   12
loop_
 _symmetry_equiv_pos_site_id
 _symmetry_equiv_pos_as_xyz
  1  'x, y, z'
loop_
 _atom_site_type_symbol
 _atom_site_label
 _atom_site_symmetry_multiplicity
 _atom_site_fract_x
 _atom_site_fract_y
 _atom_site_fract_z
 _atom_site_occupancy
  Li  Li0  1  0.17008400  0.11305800  0.55087000  1
  Li  Li1  1  0.17008400  0.88694200  0.05087000  1
  Li  Li2  1  0.50000000  0.84597500  0.75000000  1
  Li  Li3  1  0.50000000  0.15402500  0.25000000  1
  Li  Li4  1  0.82991600  0.11305800  0.94913000  1
  Li  Li5  1  0.82991600  0.88694200  0.44913000  1
  Li  Li6  1  0.67008400  0.61305800  0.55087000  1
  Li  Li7  1  0.67008400  0.38694200  0.05087000  1
  Li  Li8  1  0.00000000  0.34597500  0.75000000  1
  Li  Li9  1  0.00000000  0.65402500  0.25000000  1
  Li  Li10  1  0.32991600  0.61305800  0.94913000  1
  Li  Li11  1  0.32991600  0.38694200  0.44913000  1
  Mn  Mn12  1  0.15037850  0.13986850  0.93567600  1
  Mn  Mn13  1  0.15037850  0.86013150  0.43567600  1
  Mn  Mn14  1  0.31735100  0.31678500  0.74998000  1
  Mn  Mn15  1  0.31735100  0.68321500  0.24998000  1
  Mn  Mn16  1  0.48394650  0.13912350  0.56217400  1
  Mn  Mn17  1  0.51605350  0.13912350  0.93782600  1
  Mn  Mn18  1  0.48394650  0.86087650  0.06217400  1
  Mn  Mn19  1  0.51605350  0.86087650  0.43782600  1
  Mn  Mn20  1  0.68264900  0.31678500  0.75002000  1
  Mn  Mn21  1  0.68264900  0.68321500  0.25002000  1
  Mn  Mn22  1  0.84962150  0.13986850  0.56432400  1
  Mn  Mn23  1  0.84962150  0.86013150  0.06432400  1
  Mn  Mn24  1  0.65037850  0.63986850  0.93567600  1
  Mn  Mn25  1  0.65037850  0.36013150  0.43567600  1
  Mn  Mn26  1  0.81735100  0.81678500  0.74998000  1
  Mn  Mn27  1  0.81735100  0.18321500  0.24998000  1
  Mn  Mn28  1  0.98394650  0.63912350  0.56217400  1
  Mn  Mn29  1  0.01605350  0.63912350  0.93782600  1
  Mn  Mn30  1  0.98394650  0.36087650  0.06217400  1
  Mn  Mn31  1  0.01605350  0.36087650  0.43782600  1
  Mn  Mn32  1  0.18264900  0.81678500  0.75002000  1
  Mn  Mn33  1  0.18264900  0.18321500  0.25002000  1
  Mn  Mn34  1  0.34962150  0.63986850  0.56432400  1
  Mn  Mn35  1  0.34962150  0.36013150  0.06432400  1
  F  F36  1  0.15860250  0.94726450  0.61130000  1
  F  F37  1  0.15860250  0.05273550  0.11130000  1
  F  F38  1  0.18134600  0.95582700  0.88362600  1
  F  F39  1  0.18134600  0.04417300  0.38362600  1
  F  F40  1  0.31279250  0.18120750  0.60640900  1
  F  F41  1  0.33365700  0.19373900  0.92634900  1
  F  F42  1  0.31279250  0.81879250  0.10640900  1
  F  F43  1  0.33365700  0.80626100  0.42634900  1
  F  F44  1  0.35476850  0.75811850  0.71890400  1
  F  F45  1  0.35476850  0.24188150  0.21890400  1
  F  F46  1  0.47685450  0.69146750  0.95857800  1
  F  F47  1  0.49302100  0.95341700  0.88787900  1
  F  F48  1  0.47685450  0.30853250  0.45857800  1
  F  F49  1  0.50000000  0.24357400  0.75000000  1
  F  F50  1  0.49302100  0.04658300  0.38787900  1
  F  F51  1  0.50697900  0.95341700  0.61212100  1
  F  F52  1  0.50000000  0.75642600  0.25000000  1
  F  F53  1  0.52314550  0.69146750  0.54142200  1
  F  F54  1  0.50697900  0.04658300  0.11212100  1
  F  F55  1  0.52314550  0.30853250  0.04142200  1
  F  F56  1  0.64523150  0.75811850  0.78109600  1
  F  F57  1  0.64523150  0.24188150  0.28109600  1
  F  F58  1  0.66634300  0.19373900  0.57365100  1
  F  F59  1  0.68720750  0.18120750  0.89359100  1
  F  F60  1  0.66634300  0.80626100  0.07365100  1
  F  F61  1  0.68720750  0.81879250  0.39359100  1
  F  F62  1  0.81865400  0.95582700  0.61637400  1
  F  F63  1  0.81865400  0.04417300  0.11637400  1
  F  F64  1  0.84139750  0.94726450  0.88870000  1
  F  F65  1  0.84139750  0.05273550  0.38870000  1
  F  F66  1  0.65860250  0.44726450  0.61130000  1
  F  F67  1  0.65860250  0.55273550  0.11130000  1
  F  F68  1  0.68134600  0.45582700  0.88362600  1
  F  F69  1  0.68134600  0.54417300  0.38362600  1
  F  F70  1  0.81279250  0.68120750  0.60640900  1
  F  F71  1  0.83365700  0.69373900  0.92634900  1
  F  F72  1  0.81279250  0.31879250  0.10640900  1
  F  F73  1  0.83365700  0.30626100  0.42634900  1
  F  F74  1  0.85476850  0.25811850  0.71890400  1
  F  F75  1  0.85476850  0.74188150  0.21890400  1
  F  F76  1  0.97685450  0.19146750  0.95857800  1
  F  F77  1  0.99302100  0.45341700  0.88787900  1
  F  F78  1  0.97685450  0.80853250  0.45857800  1
  F  F79  1  0.00000000  0.74357400  0.75000000  1
  F  F80  1  0.99302100  0.54658300  0.38787900  1
  F  F81  1  0.00697900  0.45341700  0.61212100  1
  F  F82  1  0.00000000  0.25642600  0.25000000  1
  F  F83  1  0.02314550  0.19146750  0.54142200  1
  F  F84  1  0.00697900  0.54658300  0.11212100  1
  F  F85  1  0.02314550  0.80853250  0.04142200  1
  F  F86  1  0.14523150  0.25811850  0.78109600  1
  F  F87  1  0.14523150  0.74188150  0.28109600  1
  F  F88  1  0.16634300  0.69373900  0.57365100  1
  F  F89  1  0.18720750  0.68120750  0.89359100  1
  F  F90  1  0.16634300  0.30626100  0.07365100  1
  F  F91  1  0.18720750  0.31879250  0.39359100  1
  F  F92  1  0.31865400  0.45582700  0.61637400  1
  F  F93  1  0.31865400  0.54417300  0.11637400  1
  F  F94  1  0.34139750  0.44726450  0.88870000  1
  F  F95  1  0.34139750  0.55273550  0.38870000  1
