# generated using pymatgen
data_Er2GeO5
_symmetry_space_group_name_H-M   'P 1'
_cell_length_a   11.42733800
_cell_length_b   11.19951000
_cell_length_c   11.27475757
_cell_angle_alpha   90.00000000
_cell_angle_beta   94.58249082
_cell_angle_gamma   90.00000000
_symmetry_Int_Tables_number   1
_chemical_formula_structural   Er2GeO5
_chemical_formula_sum   'Er24 Ge12 O60'
_cell_volume   1438.33746186
_cell_formula_units_Z   12
loop_
 _symmetry_equiv_pos_site_id
 _symmetry_equiv_pos_as_xyz
  1  'x, y, z'
loop_
 _atom_site_type_symbol
 _atom_site_label
 _atom_site_symmetry_multiplicity
 _atom_site_fract_x
 _atom_site_fract_y
 _atom_site_fract_z
 _atom_site_occupancy
  Er  Er0  1  0.34792450  0.64630950  0.06332000  1
  Er  Er1  1  0.68127300  0.32097500  0.24833400  1
  Er  Er2  1  0.34792450  0.35369050  0.56332000  1
  Er  Er3  1  0.01308500  0.64104500  0.42829000  1
  Er  Er4  1  0.98691500  0.64104500  0.07171000  1
  Er  Er5  1  0.31872700  0.32097500  0.25166600  1
  Er  Er6  1  0.68127300  0.67902500  0.74833400  1
  Er  Er7  1  0.01308500  0.35895500  0.92829000  1
  Er  Er8  1  0.98691500  0.35895500  0.57171000  1
  Er  Er9  1  0.65207550  0.64630950  0.43668000  1
  Er  Er10  1  0.31872700  0.67902500  0.75166600  1
  Er  Er11  1  0.65207550  0.35369050  0.93668000  1
  Er  Er12  1  0.84792450  0.14630950  0.06332000  1
  Er  Er13  1  0.18127300  0.82097500  0.24833400  1
  Er  Er14  1  0.84792450  0.85369050  0.56332000  1
  Er  Er15  1  0.51308500  0.14104500  0.42829000  1
  Er  Er16  1  0.48691500  0.14104500  0.07171000  1
  Er  Er17  1  0.81872700  0.82097500  0.25166600  1
  Er  Er18  1  0.18127300  0.17902500  0.74833400  1
  Er  Er19  1  0.51308500  0.85895500  0.92829000  1
  Er  Er20  1  0.48691500  0.85895500  0.57171000  1
  Er  Er21  1  0.15207550  0.14630950  0.43668000  1
  Er  Er22  1  0.81872700  0.17902500  0.75166600  1
  Er  Er23  1  0.15207550  0.85369050  0.93668000  1
  Ge  Ge24  1  0.33054400  0.60535700  0.45391100  1
  Ge  Ge25  1  0.33054400  0.39464300  0.95391100  1
  Ge  Ge26  1  0.00000000  0.64068100  0.75000000  1
  Ge  Ge27  1  0.00000000  0.35931900  0.25000000  1
  Ge  Ge28  1  0.66945600  0.60535700  0.04608900  1
  Ge  Ge29  1  0.66945600  0.39464300  0.54608900  1
  Ge  Ge30  1  0.83054400  0.10535700  0.45391100  1
  Ge  Ge31  1  0.83054400  0.89464300  0.95391100  1
  Ge  Ge32  1  0.50000000  0.14068100  0.75000000  1
  Ge  Ge33  1  0.50000000  0.85931900  0.25000000  1
  Ge  Ge34  1  0.16945600  0.10535700  0.04608900  1
  Ge  Ge35  1  0.16945600  0.89464300  0.54608900  1
  O  O36  1  0.16752300  0.71012200  0.07685700  1
  O  O37  1  0.20171100  0.67620500  0.39220700  1
  O  O38  1  0.34812750  0.53512050  0.88407200  1
  O  O39  1  0.12945350  0.72836050  0.77868300  1
  O  O40  1  0.34812750  0.46487950  0.38407200  1
  O  O41  1  0.03814100  0.81042200  0.53930700  1
  O  O42  1  0.31024700  0.54764300  0.60091800  1
  O  O43  1  0.00000000  0.74106800  0.25000000  1
  O  O44  1  0.96185900  0.81042200  0.96069300  1
  O  O45  1  0.31024700  0.45235700  0.10091800  1
  O  O46  1  0.87054650  0.72836050  0.72131700  1
  O  O47  1  0.00815400  0.55147400  0.61828200  1
  O  O48  1  0.83247700  0.71012200  0.42314300  1
  O  O49  1  0.20171100  0.32379500  0.89220700  1
  O  O50  1  0.99184600  0.55147400  0.88171800  1
  O  O51  1  0.00815400  0.44852600  0.11828200  1
  O  O52  1  0.79828900  0.67620500  0.10779300  1
  O  O53  1  0.16752300  0.28987800  0.57685700  1
  O  O54  1  0.99184600  0.44852600  0.38171800  1
  O  O55  1  0.12945350  0.27163950  0.27868300  1
  O  O56  1  0.68975300  0.54764300  0.89908200  1
  O  O57  1  0.03814100  0.18957800  0.03930700  1
  O  O58  1  0.00000000  0.25893200  0.75000000  1
  O  O59  1  0.68975300  0.45235700  0.39908200  1
  O  O60  1  0.96185900  0.18957800  0.46069300  1
  O  O61  1  0.65187250  0.53512050  0.61592800  1
  O  O62  1  0.87054650  0.27163950  0.22131700  1
  O  O63  1  0.65187250  0.46487950  0.11592800  1
  O  O64  1  0.79828900  0.32379500  0.60779300  1
  O  O65  1  0.83247700  0.28987800  0.92314300  1
  O  O66  1  0.66752300  0.21012200  0.07685700  1
  O  O67  1  0.70171100  0.17620500  0.39220700  1
  O  O68  1  0.84812750  0.03512050  0.88407200  1
  O  O69  1  0.62945350  0.22836050  0.77868300  1
  O  O70  1  0.84812750  0.96487950  0.38407200  1
  O  O71  1  0.53814100  0.31042200  0.53930700  1
  O  O72  1  0.81024700  0.04764300  0.60091800  1
  O  O73  1  0.50000000  0.24106800  0.25000000  1
  O  O74  1  0.46185900  0.31042200  0.96069300  1
  O  O75  1  0.81024700  0.95235700  0.10091800  1
  O  O76  1  0.37054650  0.22836050  0.72131700  1
  O  O77  1  0.50815400  0.05147400  0.61828200  1
  O  O78  1  0.33247700  0.21012200  0.42314300  1
  O  O79  1  0.70171100  0.82379500  0.89220700  1
  O  O80  1  0.49184600  0.05147400  0.88171800  1
  O  O81  1  0.50815400  0.94852600  0.11828200  1
  O  O82  1  0.29828900  0.17620500  0.10779300  1
  O  O83  1  0.66752300  0.78987800  0.57685700  1
  O  O84  1  0.49184600  0.94852600  0.38171800  1
  O  O85  1  0.62945350  0.77163950  0.27868300  1
  O  O86  1  0.18975300  0.04764300  0.89908200  1
  O  O87  1  0.53814100  0.68957800  0.03930700  1
  O  O88  1  0.50000000  0.75893200  0.75000000  1
  O  O89  1  0.18975300  0.95235700  0.39908200  1
  O  O90  1  0.46185900  0.68957800  0.46069300  1
  O  O91  1  0.15187250  0.03512050  0.61592800  1
  O  O92  1  0.37054650  0.77163950  0.22131700  1
  O  O93  1  0.15187250  0.96487950  0.11592800  1
  O  O94  1  0.29828900  0.82379500  0.60779300  1
  O  O95  1  0.33247700  0.78987800  0.92314300  1
