# generated using pymatgen
data_VNi3Sn2(PO4)6
_symmetry_space_group_name_H-M   'P 1'
_cell_length_a   8.67550425
_cell_length_b   8.67550425
_cell_length_c   20.49503863
_cell_angle_alpha   90.00000000
_cell_angle_beta   90.00000000
_cell_angle_gamma   120.00000000
_symmetry_Int_Tables_number   1
_chemical_formula_structural   VNi3Sn2(PO4)6
_chemical_formula_sum   'V3 Ni9 Sn6 P18 O72'
_cell_volume   1335.88424063
_cell_formula_units_Z   3
loop_
 _symmetry_equiv_pos_site_id
 _symmetry_equiv_pos_as_xyz
  1  'x, y, z'
loop_
 _atom_site_type_symbol
 _atom_site_label
 _atom_site_symmetry_multiplicity
 _atom_site_fract_x
 _atom_site_fract_y
 _atom_site_fract_z
 _atom_site_occupancy
  V  V0  1  0.33333333  0.66666667  0.81410467  1
  V  V1  1  0.00000000  0.00000000  0.14743800  1
  V  V2  1  0.66666667  0.33333333  0.48077133  1
  Ni  Ni3  1  0.33333333  0.66666667  0.31447667  1
  Ni  Ni4  1  0.33333333  0.66666667  0.51817667  1
  Ni  Ni5  1  0.33333333  0.66666667  0.02061467  1
  Ni  Ni6  1  0.00000000  0.00000000  0.64781000  1
  Ni  Ni7  1  0.00000000  0.00000000  0.85151000  1
  Ni  Ni8  1  0.00000000  0.00000000  0.35394800  1
  Ni  Ni9  1  0.66666667  0.33333333  0.98114333  1
  Ni  Ni10  1  0.66666667  0.33333333  0.18484333  1
  Ni  Ni11  1  0.66666667  0.33333333  0.68728133  1
  Sn  Sn12  1  0.33333333  0.66666667  0.66442367  1
  Sn  Sn13  1  0.33333333  0.66666667  0.16519267  1
  Sn  Sn14  1  0.00000000  0.00000000  0.99775700  1
  Sn  Sn15  1  0.00000000  0.00000000  0.49852600  1
  Sn  Sn16  1  0.66666667  0.33333333  0.33109033  1
  Sn  Sn17  1  0.66666667  0.33333333  0.83185933  1
  P  P18  1  0.00085500  0.29506300  0.25103600  1
  P  P19  1  0.70493700  0.70579200  0.25103600  1
  P  P20  1  0.29420800  0.99914500  0.25103600  1
  P  P21  1  0.37299933  0.33411067  0.08404367  1
  P  P22  1  0.96111133  0.62700067  0.08404367  1
  P  P23  1  0.66588933  0.03888867  0.08404367  1
  P  P24  1  0.66752167  0.62839633  0.58436933  1
  P  P25  1  0.37160367  0.03912533  0.58436933  1
  P  P26  1  0.96087467  0.33247833  0.58436933  1
  P  P27  1  0.03966600  0.66744400  0.41737700  1
  P  P28  1  0.62777800  0.96033400  0.41737700  1
  P  P29  1  0.33255600  0.37222200  0.41737700  1
  P  P30  1  0.33418833  0.96172967  0.91770267  1
  P  P31  1  0.03827033  0.37245867  0.91770267  1
  P  P32  1  0.62754133  0.66581167  0.91770267  1
  P  P33  1  0.70633267  0.00077733  0.75071033  1
  P  P34  1  0.29444467  0.29366733  0.75071033  1
  P  P35  1  0.99922267  0.70555533  0.75071033  1
  O  O36  1  0.12522000  0.46995200  0.97854400  1
  O  O37  1  0.53004800  0.65526800  0.97854400  1
  O  O38  1  0.34473200  0.87478000  0.97854400  1
  O  O39  1  0.83648933  0.32526267  0.25862067  1
  O  O40  1  0.32016867  0.85250933  0.85514433  1
  O  O41  1  0.16655700  0.48355900  0.23675500  1
  O  O42  1  0.67473733  0.51122667  0.25862067  1
  O  O43  1  0.51644100  0.68299800  0.23675500  1
  O  O44  1  0.45531833  0.32237567  0.14654067  1
  O  O45  1  0.31700200  0.83344300  0.23675500  1
  O  O46  1  0.17202733  0.16357667  0.07643567  1
  O  O47  1  0.86705733  0.54468167  0.14654067  1
  O  O48  1  0.14749067  0.46765933  0.85514433  1
  O  O49  1  0.48877333  0.16351067  0.25862067  1
  O  O50  1  0.33716500  0.49525200  0.09308600  1
  O  O51  1  0.53234067  0.67983133  0.85514433  1
  O  O52  1  0.15808700  0.66283500  0.09308600  1
  O  O53  1  0.99154933  0.82797267  0.07643567  1
  O  O54  1  0.50474800  0.84191300  0.09308600  1
  O  O55  1  0.67762433  0.13294267  0.14654067  1
  O  O56  1  0.83642333  0.00845067  0.07643567  1
  O  O57  1  0.33167067  0.45815833  0.35412733  1
  O  O58  1  0.12648767  0.66832933  0.35412733  1
  O  O59  1  0.54184167  0.87351233  0.35412733  1
  O  O60  1  0.79188667  0.80328533  0.31187733  1
  O  O61  1  0.19671467  0.98860133  0.31187733  1
  O  O62  1  0.01139867  0.20811333  0.31187733  1
  O  O63  1  0.50315600  0.65859600  0.59195400  1
  O  O64  1  0.98683533  0.18584267  0.18847767  1
  O  O65  1  0.83322367  0.81689233  0.57008833  1
  O  O66  1  0.34140400  0.84456000  0.59195400  1
  O  O67  1  0.18310767  0.01633133  0.57008833  1
  O  O68  1  0.12198500  0.65570900  0.47987400  1
  O  O69  1  0.98366867  0.16677633  0.57008833  1
  O  O70  1  0.83869400  0.49691000  0.40976900  1
  O  O71  1  0.53372400  0.87801500  0.47987400  1
  O  O72  1  0.81415733  0.80099267  0.18847767  1
  O  O73  1  0.15544000  0.49684400  0.59195400  1
  O  O74  1  0.00383167  0.82858533  0.42641933  1
  O  O75  1  0.19900733  0.01316467  0.18847767  1
  O  O76  1  0.82475367  0.99616833  0.42641933  1
  O  O77  1  0.65821600  0.16130600  0.40976900  1
  O  O78  1  0.17141467  0.17524633  0.42641933  1
  O  O79  1  0.34429100  0.46627600  0.47987400  1
  O  O80  1  0.50309000  0.34178400  0.40976900  1
  O  O81  1  0.99833733  0.79149167  0.68746067  1
  O  O82  1  0.79315433  0.00166267  0.68746067  1
  O  O83  1  0.20850833  0.20684567  0.68746067  1
  O  O84  1  0.45855333  0.13661867  0.64521067  1
  O  O85  1  0.86338133  0.32193467  0.64521067  1
  O  O86  1  0.67806533  0.54144667  0.64521067  1
  O  O87  1  0.16982267  0.99192933  0.92528733  1
  O  O88  1  0.65350200  0.51917600  0.52181100  1
  O  O89  1  0.49989033  0.15022567  0.90342167  1
  O  O90  1  0.00807067  0.17789333  0.92528733  1
  O  O91  1  0.84977433  0.34966467  0.90342167  1
  O  O92  1  0.78865167  0.98904233  0.81320733  1
  O  O93  1  0.65033533  0.50010967  0.90342167  1
  O  O94  1  0.50536067  0.83024333  0.74310233  1
  O  O95  1  0.20039067  0.21134833  0.81320733  1
  O  O96  1  0.48082400  0.13432600  0.52181100  1
  O  O97  1  0.82210667  0.83017733  0.92528733  1
  O  O98  1  0.67049833  0.16191867  0.75975267  1
  O  O99  1  0.86567400  0.34649800  0.52181100  1
  O  O100  1  0.49142033  0.32950167  0.75975267  1
  O  O101  1  0.32488267  0.49463933  0.74310233  1
  O  O102  1  0.83808133  0.50857967  0.75975267  1
  O  O103  1  0.01095767  0.79960933  0.81320733  1
  O  O104  1  0.16975667  0.67511733  0.74310233  1
  O  O105  1  0.66500400  0.12482500  0.02079400  1
  O  O106  1  0.45982100  0.33499600  0.02079400  1
  O  O107  1  0.87517500  0.54017900  0.02079400  1
