# generated using pymatgen
data_Sn(PO3)4
_symmetry_space_group_name_H-M   'P 1'
_cell_length_a   12.58414400
_cell_length_b   8.32859000
_cell_length_c   10.12879353
_cell_angle_alpha   90.00000000
_cell_angle_beta   116.69788917
_cell_angle_gamma   90.00000000
_symmetry_Int_Tables_number   1
_chemical_formula_structural   Sn(PO3)4
_chemical_formula_sum   'Sn4 P16 O48'
_cell_volume   948.40310464
_cell_formula_units_Z   4
loop_
 _symmetry_equiv_pos_site_id
 _symmetry_equiv_pos_as_xyz
  1  'x, y, z'
loop_
 _atom_site_type_symbol
 _atom_site_label
 _atom_site_symmetry_multiplicity
 _atom_site_fract_x
 _atom_site_fract_y
 _atom_site_fract_z
 _atom_site_occupancy
  Sn  Sn0  1  0.25000000  0.75000000  0.00000000  1
  Sn  Sn1  1  0.25000000  0.25000000  0.50000000  1
  Sn  Sn2  1  0.75000000  0.25000000  0.00000000  1
  Sn  Sn3  1  0.75000000  0.75000000  0.50000000  1
  P  P4  1  0.50392600  0.75549400  0.52990400  1
  P  P5  1  0.49607400  0.75549400  0.97009600  1
  P  P6  1  0.17473700  0.48413100  0.18407600  1
  P  P7  1  0.00392600  0.74450600  0.02990400  1
  P  P8  1  0.99607400  0.74450600  0.47009600  1
  P  P9  1  0.32526300  0.98413100  0.31592400  1
  P  P10  1  0.17473700  0.51586900  0.68407600  1
  P  P11  1  0.32526300  0.01586900  0.81592400  1
  P  P12  1  0.00392600  0.25549400  0.52990400  1
  P  P13  1  0.99607400  0.25549400  0.97009600  1
  P  P14  1  0.67473700  0.98413100  0.18407600  1
  P  P15  1  0.50392600  0.24450600  0.02990400  1
  P  P16  1  0.49607400  0.24450600  0.47009600  1
  P  P17  1  0.82526300  0.48413100  0.31592400  1
  P  P18  1  0.67473700  0.01586900  0.68407600  1
  P  P19  1  0.82526300  0.51586900  0.81592400  1
  O  O20  1  0.56472500  0.90217100  0.65176900  1
  O  O21  1  0.27522650  0.07241350  0.65798900  1
  O  O22  1  0.22477350  0.42758650  0.34201100  1
  O  O23  1  0.57102600  0.75764900  0.43393700  1
  O  O24  1  0.57102600  0.24235100  0.93393700  1
  O  O25  1  0.06472500  0.59782900  0.15176900  1
  O  O26  1  0.23366150  0.92994750  0.84995900  1
  O  O27  1  0.37515400  0.16487700  0.92450100  1
  O  O28  1  0.37515400  0.83512300  0.42450100  1
  O  O29  1  0.98855200  0.88746600  0.10185000  1
  O  O30  1  0.93527500  0.59782900  0.34823100  1
  O  O31  1  0.77522650  0.42758650  0.15798900  1
  O  O32  1  0.26633850  0.42994750  0.65004100  1
  O  O33  1  0.01144800  0.88746600  0.39815000  1
  O  O34  1  0.48855200  0.61253400  0.60185000  1
  O  O35  1  0.92897400  0.25764900  0.06606300  1
  O  O36  1  0.72477350  0.07241350  0.84201100  1
  O  O37  1  0.92897400  0.74235100  0.56606300  1
  O  O38  1  0.51144800  0.61253400  0.89815000  1
  O  O39  1  0.12484600  0.66487700  0.57549900  1
  O  O40  1  0.12484600  0.33512300  0.07549900  1
  O  O41  1  0.26633850  0.57005250  0.15004100  1
  O  O42  1  0.43527500  0.90217100  0.84823100  1
  O  O43  1  0.23366150  0.07005250  0.34995900  1
  O  O44  1  0.06472500  0.40217100  0.65176900  1
  O  O45  1  0.77522650  0.57241350  0.65798900  1
  O  O46  1  0.72477350  0.92758650  0.34201100  1
  O  O47  1  0.07102600  0.25764900  0.43393700  1
  O  O48  1  0.07102600  0.74235100  0.93393700  1
  O  O49  1  0.56472500  0.09782900  0.15176900  1
  O  O50  1  0.73366150  0.42994750  0.84995900  1
  O  O51  1  0.87515400  0.66487700  0.92450100  1
  O  O52  1  0.87515400  0.33512300  0.42450100  1
  O  O53  1  0.48855200  0.38746600  0.10185000  1
  O  O54  1  0.43527500  0.09782900  0.34823100  1
  O  O55  1  0.27522650  0.92758650  0.15798900  1
  O  O56  1  0.76633850  0.92994750  0.65004100  1
  O  O57  1  0.51144800  0.38746600  0.39815000  1
  O  O58  1  0.98855200  0.11253400  0.60185000  1
  O  O59  1  0.42897400  0.75764900  0.06606300  1
  O  O60  1  0.22477350  0.57241350  0.84201100  1
  O  O61  1  0.42897400  0.24235100  0.56606300  1
  O  O62  1  0.01144800  0.11253400  0.89815000  1
  O  O63  1  0.62484600  0.16487700  0.57549900  1
  O  O64  1  0.62484600  0.83512300  0.07549900  1
  O  O65  1  0.76633850  0.07005250  0.15004100  1
  O  O66  1  0.93527500  0.40217100  0.84823100  1
  O  O67  1  0.73366150  0.57005250  0.34995900  1
