# generated using pymatgen
data_GdTa3O9
_symmetry_space_group_name_H-M   'P 1'
_cell_length_a   6.52489500
_cell_length_b   7.66748000
_cell_length_c   12.66065700
_cell_angle_alpha   90.00000000
_cell_angle_beta   90.00000000
_cell_angle_gamma   90.00000000
_symmetry_Int_Tables_number   1
_chemical_formula_structural   GdTa3O9
_chemical_formula_sum   'Gd4 Ta12 O36'
_cell_volume   633.40636362
_cell_formula_units_Z   4
loop_
 _symmetry_equiv_pos_site_id
 _symmetry_equiv_pos_as_xyz
  1  'x, y, z'
loop_
 _atom_site_type_symbol
 _atom_site_label
 _atom_site_symmetry_multiplicity
 _atom_site_fract_x
 _atom_site_fract_y
 _atom_site_fract_z
 _atom_site_occupancy
  Gd  Gd0  1  0.05452400  0.25000000  0.46639200  1
  Gd  Gd1  1  0.44547600  0.75000000  0.96639200  1
  Gd  Gd2  1  0.55452400  0.25000000  0.03360800  1
  Gd  Gd3  1  0.94547600  0.75000000  0.53360800  1
  Ta  Ta4  1  0.00000000  0.00000000  0.00000000  1
  Ta  Ta5  1  0.00000000  0.50000000  0.00000000  1
  Ta  Ta6  1  0.20995000  0.00253100  0.71383500  1
  Ta  Ta7  1  0.20995000  0.49746900  0.71383500  1
  Ta  Ta8  1  0.29005000  0.50253100  0.21383500  1
  Ta  Ta9  1  0.29005000  0.99746900  0.21383500  1
  Ta  Ta10  1  0.50000000  0.00000000  0.50000000  1
  Ta  Ta11  1  0.50000000  0.50000000  0.50000000  1
  Ta  Ta12  1  0.70995000  0.00253100  0.78616500  1
  Ta  Ta13  1  0.70995000  0.49746900  0.78616500  1
  Ta  Ta14  1  0.79005000  0.50253100  0.28616500  1
  Ta  Ta15  1  0.79005000  0.99746900  0.28616500  1
  O  O16  1  0.02038700  0.03901900  0.84355900  1
  O  O17  1  0.02038700  0.46098100  0.84355900  1
  O  O18  1  0.07365400  0.75000000  0.97686400  1
  O  O19  1  0.09845200  0.03059200  0.33256400  1
  O  O20  1  0.09845200  0.46940800  0.33256400  1
  O  O21  1  0.17523200  0.25000000  0.67407000  1
  O  O22  1  0.20318700  0.75000000  0.69793600  1
  O  O23  1  0.20878700  0.96721900  0.53845500  1
  O  O24  1  0.20878700  0.53278100  0.53845500  1
  O  O25  1  0.29121300  0.03278100  0.03845500  1
  O  O26  1  0.29121300  0.46721900  0.03845500  1
  O  O27  1  0.29681300  0.25000000  0.19793600  1
  O  O28  1  0.32476800  0.75000000  0.17407000  1
  O  O29  1  0.40154800  0.53059200  0.83256400  1
  O  O30  1  0.40154800  0.96940800  0.83256400  1
  O  O31  1  0.42634600  0.25000000  0.47686400  1
  O  O32  1  0.47961300  0.53901900  0.34355900  1
  O  O33  1  0.47961300  0.96098100  0.34355900  1
  O  O34  1  0.52038700  0.03901900  0.65644100  1
  O  O35  1  0.52038700  0.46098100  0.65644100  1
  O  O36  1  0.57365400  0.75000000  0.52313600  1
  O  O37  1  0.59845200  0.03059200  0.16743600  1
  O  O38  1  0.59845200  0.46940800  0.16743600  1
  O  O39  1  0.67523200  0.25000000  0.82593000  1
  O  O40  1  0.70318700  0.75000000  0.80206400  1
  O  O41  1  0.70878700  0.53278100  0.96154500  1
  O  O42  1  0.70878700  0.96721900  0.96154500  1
  O  O43  1  0.79121300  0.03278100  0.46154500  1
  O  O44  1  0.79121300  0.46721900  0.46154500  1
  O  O45  1  0.79681300  0.25000000  0.30206400  1
  O  O46  1  0.82476800  0.75000000  0.32593000  1
  O  O47  1  0.90154800  0.53059200  0.66743600  1
  O  O48  1  0.90154800  0.96940800  0.66743600  1
  O  O49  1  0.92634600  0.25000000  0.02313600  1
  O  O50  1  0.97961300  0.53901900  0.15644100  1
  O  O51  1  0.97961300  0.96098100  0.15644100  1
