# generated using pymatgen
data_Li2V(Si2O5)3
_symmetry_space_group_name_H-M   'P 1'
_cell_length_a   6.87099600
_cell_length_b   12.68773200
_cell_length_c   7.44627250
_cell_angle_alpha   90.00000000
_cell_angle_beta   110.75411737
_cell_angle_gamma   90.00000000
_symmetry_Int_Tables_number   1
_chemical_formula_structural   Li2V(Si2O5)3
_chemical_formula_sum   'Li4 V2 Si12 O30'
_cell_volume   607.02307713
_cell_formula_units_Z   2
loop_
 _symmetry_equiv_pos_site_id
 _symmetry_equiv_pos_as_xyz
  1  'x, y, z'
loop_
 _atom_site_type_symbol
 _atom_site_label
 _atom_site_symmetry_multiplicity
 _atom_site_fract_x
 _atom_site_fract_y
 _atom_site_fract_z
 _atom_site_occupancy
  Li  Li0  1  0.14229900  0.33857000  0.45855500  1
  Li  Li1  1  0.16825300  0.16454600  0.15888100  1
  Li  Li2  1  0.83174700  0.66454600  0.84111900  1
  Li  Li3  1  0.85770100  0.83857000  0.54144500  1
  V  V4  1  0.26137400  0.75035000  0.75703400  1
  V  V5  1  0.73862600  0.25035000  0.24296600  1
  Si  Si6  1  0.03127600  0.66706200  0.30807800  1
  Si  Si7  1  0.00742800  0.84419800  0.02383200  1
  Si  Si8  1  0.29956200  0.51218500  0.91641500  1
  Si  Si9  1  0.30930400  0.00985000  0.70453100  1
  Si  Si10  1  0.53114400  0.34275400  0.80084100  1
  Si  Si11  1  0.49110600  0.66595700  0.47731100  1
  Si  Si12  1  0.50889400  0.16595700  0.52268900  1
  Si  Si13  1  0.46885600  0.84275400  0.19915900  1
  Si  Si14  1  0.69069600  0.50985000  0.29546900  1
  Si  Si15  1  0.70043800  0.01218500  0.08358500  1
  Si  Si16  1  0.99257200  0.34419800  0.97616800  1
  Si  Si17  1  0.96872400  0.16706200  0.69192200  1
  O  O18  1  0.00692600  0.80797900  0.81460800  1
  O  O19  1  0.07282700  0.23557900  0.89425600  1
  O  O20  1  0.15610900  0.43989900  0.00134200  1
  O  O21  1  0.03790600  0.73503800  0.49135000  1
  O  O22  1  0.08894600  0.05365500  0.71493700  1
  O  O23  1  0.16927300  0.61682700  0.81941800  1
  O  O24  1  0.30129000  0.88410600  0.67082500  1
  O  O25  1  0.26595200  0.63620000  0.31790800  1
  O  O26  1  0.45380300  0.77605100  0.01140100  1
  O  O27  1  0.36131200  0.44071700  0.75725700  1
  O  O28  1  0.23346900  0.88349200  0.17754400  1
  O  O29  1  0.48494600  0.04125800  0.90954600  1
  O  O30  1  0.34866300  0.07053600  0.52469000  1
  O  O31  1  0.49873700  0.68366700  0.69477900  1
  O  O32  1  0.42768700  0.27595200  0.59711100  1
  O  O33  1  0.57231300  0.77595200  0.40288900  1
  O  O34  1  0.50126300  0.18366700  0.30522100  1
  O  O35  1  0.65133700  0.57053600  0.47531000  1
  O  O36  1  0.51505400  0.54125800  0.09045400  1
  O  O37  1  0.76653100  0.38349200  0.82245600  1
  O  O38  1  0.63868800  0.94071700  0.24274300  1
  O  O39  1  0.54619700  0.27605100  0.98859900  1
  O  O40  1  0.73404800  0.13620000  0.68209200  1
  O  O41  1  0.69871000  0.38410600  0.32917500  1
  O  O42  1  0.83072700  0.11682700  0.18058200  1
  O  O43  1  0.91105400  0.55365500  0.28506300  1
  O  O44  1  0.96209400  0.23503800  0.50865000  1
  O  O45  1  0.84389100  0.93989900  0.99865800  1
  O  O46  1  0.92717300  0.73557900  0.10574400  1
  O  O47  1  0.99307400  0.30797900  0.18539200  1
