# generated using pymatgen
data_CaPdF6
_symmetry_space_group_name_H-M   'P 1'
_cell_length_a   5.37049817
_cell_length_b   5.37049817
_cell_length_c   14.74667627
_cell_angle_alpha   90.00000000
_cell_angle_beta   90.00000000
_cell_angle_gamma   120.00000000
_symmetry_Int_Tables_number   1
_chemical_formula_structural   CaPdF6
_chemical_formula_sum   'Ca3 Pd3 F18'
_cell_volume   368.34427433
_cell_formula_units_Z   3
loop_
 _symmetry_equiv_pos_site_id
 _symmetry_equiv_pos_as_xyz
  1  'x, y, z'
loop_
 _atom_site_type_symbol
 _atom_site_label
 _atom_site_symmetry_multiplicity
 _atom_site_fract_x
 _atom_site_fract_y
 _atom_site_fract_z
 _atom_site_occupancy
  Ca  Ca0  1  0.33333333  0.66666667  0.16666667  1
  Ca  Ca1  1  1.00000000  0.00000000  0.50000000  1
  Ca  Ca2  1  0.66666667  0.33333333  0.83333333  1
  Pd  Pd3  1  0.00000000  0.00000000  0.00000000  1
  Pd  Pd4  1  0.66666667  0.33333333  0.33333333  1
  Pd  Pd5  1  0.33333333  0.66666667  0.66666667  1
  F  F6  1  0.37558767  0.03550133  0.25618733  1
  F  F7  1  0.65991367  0.62441233  0.25618733  1
  F  F8  1  0.70216800  0.99324700  0.07714600  1
  F  F9  1  0.00675300  0.70892100  0.07714600  1
  F  F10  1  0.29107900  0.29783200  0.07714600  1
  F  F11  1  0.96449867  0.34008633  0.25618733  1
  F  F12  1  0.04225433  0.36883467  0.58952067  1
  F  F13  1  0.32658033  0.95774567  0.58952067  1
  F  F14  1  0.36883467  0.32658033  0.41047933  1
  F  F15  1  0.67341967  0.04225433  0.41047933  1
  F  F16  1  0.95774567  0.63116533  0.41047933  1
  F  F17  1  0.63116533  0.67341967  0.58952067  1
  F  F18  1  0.70892100  0.70216800  0.92285400  1
  F  F19  1  0.99324700  0.29107900  0.92285400  1
  F  F20  1  0.03550133  0.65991367  0.74381267  1
  F  F21  1  0.34008633  0.37558767  0.74381267  1
  F  F22  1  0.62441233  0.96449867  0.74381267  1
  F  F23  1  0.29783200  0.00675300  0.92285400  1
