# generated using pymatgen
data_LiMn4O8
_symmetry_space_group_name_H-M   'P 1'
_cell_length_a   10.35862000
_cell_length_b   5.82220400
_cell_length_c   6.04281549
_cell_angle_alpha   90.00000000
_cell_angle_beta   124.78331905
_cell_angle_gamma   90.00000000
_symmetry_Int_Tables_number   1
_chemical_formula_structural   LiMn4O8
_chemical_formula_sum   'Li2 Mn8 O16'
_cell_volume   299.32196171
_cell_formula_units_Z   2
loop_
 _symmetry_equiv_pos_site_id
 _symmetry_equiv_pos_as_xyz
  1  'x, y, z'
loop_
 _atom_site_type_symbol
 _atom_site_label
 _atom_site_symmetry_multiplicity
 _atom_site_fract_x
 _atom_site_fract_y
 _atom_site_fract_z
 _atom_site_occupancy
  Li  Li0  1  0.00000000  0.50000000  0.50000000  1
  Li  Li1  1  0.50000000  0.00000000  0.50000000  1
  Mn  Mn2  1  0.75000000  0.25000000  0.00000000  1
  Mn  Mn3  1  0.00000000  0.50000000  0.00000000  1
  Mn  Mn4  1  0.75000000  0.75000000  0.00000000  1
  Mn  Mn5  1  0.00000000  0.00000000  0.00000000  1
  Mn  Mn6  1  0.25000000  0.75000000  0.00000000  1
  Mn  Mn7  1  0.50000000  0.00000000  0.00000000  1
  Mn  Mn8  1  0.25000000  0.25000000  0.00000000  1
  Mn  Mn9  1  0.50000000  0.50000000  0.00000000  1
  O  O10  1  0.02274050  0.74668350  0.80680700  1
  O  O11  1  0.75780200  0.50000000  0.21363300  1
  O  O12  1  0.27036900  0.00000000  0.80271200  1
  O  O13  1  0.02274050  0.25331650  0.80680700  1
  O  O14  1  0.97725950  0.74668350  0.19319300  1
  O  O15  1  0.72963100  0.00000000  0.19728800  1
  O  O16  1  0.24219800  0.50000000  0.78636700  1
  O  O17  1  0.97725950  0.25331650  0.19319300  1
  O  O18  1  0.52274050  0.24668350  0.80680700  1
  O  O19  1  0.25780200  0.00000000  0.21363300  1
  O  O20  1  0.77036900  0.50000000  0.80271200  1
  O  O21  1  0.52274050  0.75331650  0.80680700  1
  O  O22  1  0.47725950  0.24668350  0.19319300  1
  O  O23  1  0.22963100  0.50000000  0.19728800  1
  O  O24  1  0.74219800  0.00000000  0.78636700  1
  O  O25  1  0.47725950  0.75331650  0.19319300  1
