# generated using pymatgen
data_Na4ZnP6(HO2)12
_symmetry_space_group_name_H-M   'P 1'
_cell_length_a   7.35600400
_cell_length_b   9.31164289
_cell_length_c   9.54838386
_cell_angle_alpha   65.60111620
_cell_angle_beta   74.88099345
_cell_angle_gamma   71.92320564
_symmetry_Int_Tables_number   1
_chemical_formula_structural   Na4ZnP6(HO2)12
_chemical_formula_sum   'Na4 Zn1 P6 H12 O24'
_cell_volume   559.53565968
_cell_formula_units_Z   1
loop_
 _symmetry_equiv_pos_site_id
 _symmetry_equiv_pos_as_xyz
  1  'x, y, z'
loop_
 _atom_site_type_symbol
 _atom_site_label
 _atom_site_symmetry_multiplicity
 _atom_site_fract_x
 _atom_site_fract_y
 _atom_site_fract_z
 _atom_site_occupancy
  Na  Na0  1  0.13776200  0.67123800  0.08829000  1
  Na  Na1  1  0.86223800  0.32876200  0.91171000  1
  Na  Na2  1  0.36569200  0.28325800  0.96366000  1
  Na  Na3  1  0.63430800  0.71674200  0.03634000  1
  Zn  Zn4  1  0.00000000  0.50000000  0.50000000  1
  P  P5  1  0.14627000  0.63068100  0.70979500  1
  P  P6  1  0.85373000  0.36931900  0.29020500  1
  P  P7  1  0.30557700  0.74438800  0.37175500  1
  P  P8  1  0.69442300  0.25561200  0.62824500  1
  P  P9  1  0.04196400  0.06969800  0.23618000  1
  P  P10  1  0.95803600  0.93030200  0.76382000  1
  H  H11  1  0.72888900  0.03374400  0.01144000  1
  H  H12  1  0.27111100  0.96625600  0.98856000  1
  H  H13  1  0.70740900  0.08851700  0.14825400  1
  H  H14  1  0.29259100  0.91148300  0.85174600  1
  H  H15  1  0.67369400  0.70885900  0.39635100  1
  H  H16  1  0.32630600  0.29114100  0.60364900  1
  H  H17  1  0.68257300  0.74902600  0.53937300  1
  H  H18  1  0.31742700  0.25097400  0.46062700  1
  H  H19  1  0.68269900  0.63720200  0.75335400  1
  H  H20  1  0.31730100  0.36279800  0.24664600  1
  H  H21  1  0.52357000  0.39675600  0.16512400  1
  H  H22  1  0.47643000  0.60324400  0.83487600  1
  O  O23  1  0.30528500  0.68502600  0.55790000  1
  O  O24  1  0.69471500  0.31497400  0.44210000  1
  O  O25  1  0.97491300  0.79247300  0.69204000  1
  O  O26  1  0.02508700  0.20752700  0.30796000  1
  O  O27  1  0.24120700  0.58066700  0.84899900  1
  O  O28  1  0.75879300  0.41933300  0.15100100  1
  O  O29  1  0.05544900  0.50920200  0.70248000  1
  O  O30  1  0.94455100  0.49079800  0.29752000  1
  O  O31  1  0.21104700  0.93594200  0.33160700  1
  O  O32  1  0.78895300  0.06405800  0.66839300  1
  O  O33  1  0.18001200  0.66419500  0.34042200  1
  O  O34  1  0.81998800  0.33580500  0.65957800  1
  O  O35  1  0.51349400  0.72499900  0.29814600  1
  O  O36  1  0.48650600  0.27500100  0.70185400  1
  O  O37  1  0.12601000  0.13489900  0.06613900  1
  O  O38  1  0.87399000  0.86510100  0.93386100  1
  O  O39  1  0.14285400  0.98359800  0.71723100  1
  O  O40  1  0.85714600  0.01640200  0.28276900  1
  O  O41  1  0.34172100  0.87680500  0.95170400  1
  O  O42  1  0.65827900  0.12319500  0.04829600  1
  O  O43  1  0.75929800  0.69117800  0.47140600  1
  O  O44  1  0.24070200  0.30882200  0.52859400  1
  O  O45  1  0.39411800  0.40370500  0.14584400  1
  O  O46  1  0.60588200  0.59629500  0.85415600  1
