# generated using pymatgen
data_LuAlO3
_symmetry_space_group_name_H-M   'P 1'
_cell_length_a   6.45878400
_cell_length_b   11.23672200
_cell_length_c   10.24609600
_cell_angle_alpha   90.00000000
_cell_angle_beta   90.00000000
_cell_angle_gamma   90.00000000
_symmetry_Int_Tables_number   1
_chemical_formula_structural   LuAlO3
_chemical_formula_sum   'Lu12 Al12 O36'
_cell_volume   743.61615774
_cell_formula_units_Z   12
loop_
 _symmetry_equiv_pos_site_id
 _symmetry_equiv_pos_as_xyz
  1  'x, y, z'
loop_
 _atom_site_type_symbol
 _atom_site_label
 _atom_site_symmetry_multiplicity
 _atom_site_fract_x
 _atom_site_fract_y
 _atom_site_fract_z
 _atom_site_occupancy
  Lu  Lu0  1  0.00000000  0.16857000  0.50000000  1
  Lu  Lu1  1  0.00000000  0.16857000  0.00000000  1
  Lu  Lu2  1  0.50000000  0.33143000  0.50000000  1
  Lu  Lu3  1  0.50000000  0.33143000  0.00000000  1
  Lu  Lu4  1  0.50000000  0.00000000  0.00000000  1
  Lu  Lu5  1  0.50000000  0.00000000  0.50000000  1
  Lu  Lu6  1  0.50000000  0.66857000  0.50000000  1
  Lu  Lu7  1  0.50000000  0.66857000  0.00000000  1
  Lu  Lu8  1  0.00000000  0.83143000  0.50000000  1
  Lu  Lu9  1  0.00000000  0.83143000  0.00000000  1
  Lu  Lu10  1  0.00000000  0.50000000  0.00000000  1
  Lu  Lu11  1  0.00000000  0.50000000  0.50000000  1
  Al  Al12  1  0.30471750  0.13903850  0.25000000  1
  Al  Al13  1  0.69528250  0.13903850  0.75000000  1
  Al  Al14  1  0.80471750  0.36096150  0.25000000  1
  Al  Al15  1  0.19528250  0.36096150  0.75000000  1
  Al  Al16  1  0.11828400  0.00000000  0.75000000  1
  Al  Al17  1  0.88171600  0.00000000  0.25000000  1
  Al  Al18  1  0.80471750  0.63903850  0.25000000  1
  Al  Al19  1  0.19528250  0.63903850  0.75000000  1
  Al  Al20  1  0.30471750  0.86096150  0.25000000  1
  Al  Al21  1  0.69528250  0.86096150  0.75000000  1
  Al  Al22  1  0.61828400  0.50000000  0.75000000  1
  Al  Al23  1  0.38171600  0.50000000  0.25000000  1
  O  O24  1  0.97228100  0.13494600  0.75000000  1
  O  O25  1  0.02771900  0.13494600  0.25000000  1
  O  O26  1  0.34348200  0.17712100  0.08598900  1
  O  O27  1  0.34348200  0.17712100  0.41401100  1
  O  O28  1  0.65651800  0.17712100  0.58598900  1
  O  O29  1  0.65651800  0.17712100  0.91401100  1
  O  O30  1  0.84348200  0.32287900  0.08598900  1
  O  O31  1  0.84348200  0.32287900  0.41401100  1
  O  O32  1  0.15651800  0.32287900  0.58598900  1
  O  O33  1  0.15651800  0.32287900  0.91401100  1
  O  O34  1  0.52771900  0.36505400  0.25000000  1
  O  O35  1  0.47228100  0.36505400  0.75000000  1
  O  O36  1  0.55803700  0.00000000  0.75000000  1
  O  O37  1  0.18547500  0.00000000  0.58102700  1
  O  O38  1  0.18547500  0.00000000  0.91897300  1
  O  O39  1  0.81452500  0.00000000  0.08102700  1
  O  O40  1  0.81452500  0.00000000  0.41897300  1
  O  O41  1  0.44196300  0.00000000  0.25000000  1
  O  O42  1  0.47228100  0.63494600  0.75000000  1
  O  O43  1  0.52771900  0.63494600  0.25000000  1
  O  O44  1  0.84348200  0.67712100  0.08598900  1
  O  O45  1  0.84348200  0.67712100  0.41401100  1
  O  O46  1  0.15651800  0.67712100  0.58598900  1
  O  O47  1  0.15651800  0.67712100  0.91401100  1
  O  O48  1  0.34348200  0.82287900  0.08598900  1
  O  O49  1  0.34348200  0.82287900  0.41401100  1
  O  O50  1  0.65651800  0.82287900  0.58598900  1
  O  O51  1  0.65651800  0.82287900  0.91401100  1
  O  O52  1  0.02771900  0.86505400  0.25000000  1
  O  O53  1  0.97228100  0.86505400  0.75000000  1
  O  O54  1  0.05803700  0.50000000  0.75000000  1
  O  O55  1  0.68547500  0.50000000  0.58102700  1
  O  O56  1  0.68547500  0.50000000  0.91897300  1
  O  O57  1  0.31452500  0.50000000  0.08102700  1
  O  O58  1  0.31452500  0.50000000  0.41897300  1
  O  O59  1  0.94196300  0.50000000  0.25000000  1
