# generated using pymatgen
data_Li2Mn3NiO8
_symmetry_space_group_name_H-M   'P 1'
_cell_length_a   5.82852634
_cell_length_b   5.82852634
_cell_length_c   14.57743496
_cell_angle_alpha   90.00000000
_cell_angle_beta   90.00000000
_cell_angle_gamma   120.00000000
_symmetry_Int_Tables_number   1
_chemical_formula_structural   Li2Mn3NiO8
_chemical_formula_sum   'Li6 Mn9 Ni3 O24'
_cell_volume   428.87355840
_cell_formula_units_Z   3
loop_
 _symmetry_equiv_pos_site_id
 _symmetry_equiv_pos_as_xyz
  1  'x, y, z'
loop_
 _atom_site_type_symbol
 _atom_site_label
 _atom_site_symmetry_multiplicity
 _atom_site_fract_x
 _atom_site_fract_y
 _atom_site_fract_z
 _atom_site_occupancy
  Li  Li0  1  0.66666667  0.33333333  0.21355267  1
  Li  Li1  1  0.66666667  0.33333333  0.45311400  1
  Li  Li2  1  0.33333333  0.66666667  0.54688600  1
  Li  Li3  1  0.33333333  0.66666667  0.78644733  1
  Li  Li4  1  0.00000000  0.00000000  0.88021933  1
  Li  Li5  1  0.00000000  0.00000000  0.11978067  1
  Mn  Mn6  1  0.16666667  0.83333333  0.33333333  1
  Mn  Mn7  1  0.66666667  0.83333333  0.33333333  1
  Mn  Mn8  1  0.16666667  0.33333333  0.33333333  1
  Mn  Mn9  1  0.83333333  0.16666667  0.66666667  1
  Mn  Mn10  1  0.33333333  0.16666667  0.66666667  1
  Mn  Mn11  1  0.83333333  0.66666667  0.66666667  1
  Mn  Mn12  1  0.50000000  0.50000000  0.00000000  1
  Mn  Mn13  1  0.00000000  0.50000000  0.00000000  1
  Mn  Mn14  1  0.50000000  0.00000000  0.00000000  1
  Ni  Ni15  1  0.33333333  0.66666667  0.16666667  1
  Ni  Ni16  1  1.00000000  1.00000000  0.50000000  1
  Ni  Ni17  1  0.66666667  0.33333333  0.83333333  1
  O  O18  1  0.84796400  0.15203600  0.40554600  1
  O  O19  1  0.00000000  0.00000000  0.26301700  1
  O  O20  1  0.84796400  0.69592800  0.40554600  1
  O  O21  1  0.30407200  0.15203600  0.40554600  1
  O  O22  1  0.02926133  0.51463067  0.26112067  1
  O  O23  1  0.48536933  0.97073867  0.26112067  1
  O  O24  1  0.33333333  0.66666667  0.40364967  1
  O  O25  1  0.48536933  0.51463067  0.26112067  1
  O  O26  1  0.51463067  0.48536933  0.73887933  1
  O  O27  1  0.66666667  0.33333333  0.59635033  1
  O  O28  1  0.51463067  0.02926133  0.73887933  1
  O  O29  1  0.97073867  0.48536933  0.73887933  1
  O  O30  1  0.69592800  0.84796400  0.59445400  1
  O  O31  1  0.15203600  0.30407200  0.59445400  1
  O  O32  1  0.00000000  0.00000000  0.73698300  1
  O  O33  1  0.15203600  0.84796400  0.59445400  1
  O  O34  1  0.18129733  0.81870267  0.07221267  1
  O  O35  1  0.33333333  0.66666667  0.92968367  1
  O  O36  1  0.18129733  0.36259467  0.07221267  1
  O  O37  1  0.63740533  0.81870267  0.07221267  1
  O  O38  1  0.36259467  0.18129733  0.92778733  1
  O  O39  1  0.81870267  0.63740533  0.92778733  1
  O  O40  1  0.66666667  0.33333333  0.07031633  1
  O  O41  1  0.81870267  0.18129733  0.92778733  1
