# generated using pymatgen
data_Li4Mn3Nb2Fe3O16
_symmetry_space_group_name_H-M   'P 1'
_cell_length_a   10.51535400
_cell_length_b   5.95007000
_cell_length_c   9.81999270
_cell_angle_alpha   90.00000000
_cell_angle_beta   92.23401784
_cell_angle_gamma   90.00000000
_symmetry_Int_Tables_number   1
_chemical_formula_structural   Li4Mn3Nb2Fe3O16
_chemical_formula_sum   'Li8 Mn6 Nb4 Fe6 O32'
_cell_volume   613.94140837
_cell_formula_units_Z   2
loop_
 _symmetry_equiv_pos_site_id
 _symmetry_equiv_pos_as_xyz
  1  'x, y, z'
loop_
 _atom_site_type_symbol
 _atom_site_label
 _atom_site_symmetry_multiplicity
 _atom_site_fract_x
 _atom_site_fract_y
 _atom_site_fract_z
 _atom_site_occupancy
  Li  Li0  1  0.66284900  0.00000000  0.90366700  1
  Li  Li1  1  0.99589600  0.00000000  0.98986000  1
  Li  Li2  1  0.50177100  0.50000000  0.48912600  1
  Li  Li3  1  0.83530900  0.50000000  0.40236100  1
  Li  Li4  1  0.16284900  0.50000000  0.90366700  1
  Li  Li5  1  0.49589600  0.50000000  0.98986000  1
  Li  Li6  1  0.00177100  0.00000000  0.48912600  1
  Li  Li7  1  0.33530900  0.00000000  0.40236100  1
  Mn  Mn8  1  0.82974700  0.00000000  0.21143400  1
  Mn  Mn9  1  0.91589750  0.74568850  0.71431100  1
  Mn  Mn10  1  0.91589750  0.25431150  0.71431100  1
  Mn  Mn11  1  0.32974700  0.50000000  0.21143400  1
  Mn  Mn12  1  0.41589750  0.24568850  0.71431100  1
  Mn  Mn13  1  0.41589750  0.75431150  0.71431100  1
  Nb  Nb14  1  0.66812000  0.00000000  0.49166800  1
  Nb  Nb15  1  0.82131000  0.50000000  0.99385200  1
  Nb  Nb16  1  0.16812000  0.50000000  0.49166800  1
  Nb  Nb17  1  0.32131000  0.00000000  0.99385200  1
  Fe  Fe18  1  0.58580300  0.24511800  0.21780000  1
  Fe  Fe19  1  0.58580300  0.75488200  0.21780000  1
  Fe  Fe20  1  0.67113200  0.50000000  0.71744100  1
  Fe  Fe21  1  0.08580300  0.74511800  0.21780000  1
  Fe  Fe22  1  0.08580300  0.25488200  0.21780000  1
  Fe  Fe23  1  0.17113200  0.00000000  0.71744100  1
  O  O24  1  0.59437150  0.25132350  0.58781400  1
  O  O25  1  0.51990100  0.00000000  0.34346800  1
  O  O26  1  0.66831500  0.00000000  0.11109000  1
  O  O27  1  0.99534800  0.00000000  0.30224500  1
  O  O28  1  0.50139200  0.50000000  0.80278800  1
  O  O29  1  0.59437150  0.74867650  0.58781400  1
  O  O30  1  0.74006100  0.22508500  0.34537500  1
  O  O31  1  0.74006100  0.77491500  0.34537500  1
  O  O32  1  0.66532400  0.50000000  0.09703000  1
  O  O33  1  0.84091900  0.00000000  0.59347700  1
  O  O34  1  0.75224250  0.72064950  0.84982700  1
  O  O35  1  0.75224250  0.27935050  0.84982700  1
  O  O36  1  0.83498900  0.50000000  0.61309600  1
  O  O37  1  0.91874350  0.74538650  0.08850000  1
  O  O38  1  0.97821900  0.50000000  0.83781800  1
  O  O39  1  0.91874350  0.25461350  0.08850000  1
  O  O40  1  0.09437150  0.75132350  0.58781400  1
  O  O41  1  0.01990100  0.50000000  0.34346800  1
  O  O42  1  0.16831500  0.50000000  0.11109000  1
  O  O43  1  0.49534800  0.50000000  0.30224500  1
  O  O44  1  0.00139200  0.00000000  0.80278800  1
  O  O45  1  0.09437150  0.24867650  0.58781400  1
  O  O46  1  0.24006100  0.72508500  0.34537500  1
  O  O47  1  0.24006100  0.27491500  0.34537500  1
  O  O48  1  0.16532400  0.00000000  0.09703000  1
  O  O49  1  0.34091900  0.50000000  0.59347700  1
  O  O50  1  0.25224250  0.22064950  0.84982700  1
  O  O51  1  0.25224250  0.77935050  0.84982700  1
  O  O52  1  0.33498900  0.00000000  0.61309600  1
  O  O53  1  0.41874350  0.24538650  0.08850000  1
  O  O54  1  0.47821900  0.00000000  0.83781800  1
  O  O55  1  0.41874350  0.75461350  0.08850000  1
