# generated using pymatgen
data_Bi2CO5
_symmetry_space_group_name_H-M   'P 1'
_cell_length_a   5.56666400
_cell_length_b   5.56770800
_cell_length_c   14.17953600
_cell_angle_alpha   90.00000000
_cell_angle_beta   90.00000000
_cell_angle_gamma   90.00000000
_symmetry_Int_Tables_number   1
_chemical_formula_structural   Bi2CO5
_chemical_formula_sum   'Bi8 C4 O20'
_cell_volume   439.47429534
_cell_formula_units_Z   4
loop_
 _symmetry_equiv_pos_site_id
 _symmetry_equiv_pos_as_xyz
  1  'x, y, z'
loop_
 _atom_site_type_symbol
 _atom_site_label
 _atom_site_symmetry_multiplicity
 _atom_site_fract_x
 _atom_site_fract_y
 _atom_site_fract_z
 _atom_site_occupancy
  Bi  Bi0  1  0.00000000  0.00258650  0.16240150  1
  Bi  Bi1  1  0.50000000  0.00258650  0.33759850  1
  Bi  Bi2  1  0.00000000  0.50258650  0.66240150  1
  Bi  Bi3  1  0.50000000  0.50258650  0.83759850  1
  Bi  Bi4  1  0.50000000  0.50258650  0.16240150  1
  Bi  Bi5  1  0.00000000  0.50258650  0.33759850  1
  Bi  Bi6  1  0.50000000  0.00258650  0.66240150  1
  Bi  Bi7  1  0.00000000  0.00258650  0.83759850  1
  C  C8  1  0.50000000  0.04628100  0.00000000  1
  C  C9  1  0.50000000  0.54628100  0.50000000  1
  C  C10  1  0.00000000  0.54628100  0.00000000  1
  C  C11  1  0.00000000  0.04628100  0.50000000  1
  O  O12  1  0.50000000  0.28034200  0.00000000  1
  O  O13  1  0.00000000  0.94166250  0.41785850  1
  O  O14  1  0.25000000  0.25140700  0.25000000  1
  O  O15  1  0.50000000  0.94166250  0.08214150  1
  O  O16  1  0.25000000  0.75140700  0.25000000  1
  O  O17  1  0.50000000  0.78034200  0.50000000  1
  O  O18  1  0.00000000  0.44166250  0.91785850  1
  O  O19  1  0.25000000  0.75140700  0.75000000  1
  O  O20  1  0.50000000  0.44166250  0.58214150  1
  O  O21  1  0.25000000  0.25140700  0.75000000  1
  O  O22  1  0.00000000  0.78034200  0.00000000  1
  O  O23  1  0.50000000  0.44166250  0.41785850  1
  O  O24  1  0.75000000  0.75140700  0.25000000  1
  O  O25  1  0.00000000  0.44166250  0.08214150  1
  O  O26  1  0.75000000  0.25140700  0.25000000  1
  O  O27  1  0.00000000  0.28034200  0.50000000  1
  O  O28  1  0.50000000  0.94166250  0.91785850  1
  O  O29  1  0.75000000  0.25140700  0.75000000  1
  O  O30  1  0.00000000  0.94166250  0.58214150  1
  O  O31  1  0.75000000  0.75140700  0.75000000  1
