# generated using pymatgen
data_As5Pb3S10
_symmetry_space_group_name_H-M   'P 1'
_cell_length_a   8.60776200
_cell_length_b   8.75036900
_cell_length_c   25.59073760
_cell_angle_alpha   90.00000000
_cell_angle_beta   91.14385619
_cell_angle_gamma   90.00000000
_symmetry_Int_Tables_number   1
_chemical_formula_structural   As5Pb3S10
_chemical_formula_sum   'As20 Pb12 S40'
_cell_volume   1927.13823881
_cell_formula_units_Z   4
loop_
 _symmetry_equiv_pos_site_id
 _symmetry_equiv_pos_as_xyz
  1  'x, y, z'
loop_
 _atom_site_type_symbol
 _atom_site_label
 _atom_site_symmetry_multiplicity
 _atom_site_fract_x
 _atom_site_fract_y
 _atom_site_fract_z
 _atom_site_occupancy
  As  As0  1  0.50788100  0.84690900  0.09773900  1
  As  As1  1  0.06419300  0.85623100  0.09683400  1
  As  As2  1  0.28487000  0.55751600  0.18330200  1
  As  As3  1  0.61622000  0.16873700  0.18949600  1
  As  As4  1  0.99686800  0.18142300  0.17391200  1
  As  As5  1  0.63350800  0.32709400  0.31036400  1
  As  As6  1  0.26000700  0.31904900  0.32589100  1
  As  As7  1  0.96178400  0.94497000  0.31502600  1
  As  As8  1  0.74673700  0.64753600  0.40513400  1
  As  As9  1  0.18542200  0.64767100  0.40193200  1
  As  As10  1  0.81457800  0.14767100  0.59806800  1
  As  As11  1  0.25326300  0.14753600  0.59486600  1
  As  As12  1  0.03821600  0.44497000  0.68497400  1
  As  As13  1  0.73999300  0.81904900  0.67410900  1
  As  As14  1  0.36649200  0.82709400  0.68963600  1
  As  As15  1  0.00313200  0.68142300  0.82608800  1
  As  As16  1  0.38378000  0.66873700  0.81050400  1
  As  As17  1  0.71513000  0.05751600  0.81669800  1
  As  As18  1  0.93580700  0.35623100  0.90316600  1
  As  As19  1  0.49211900  0.34690900  0.90226100  1
  Pb  Pb20  1  0.76047300  0.20798500  0.04513900  1
  Pb  Pb21  1  0.26362600  0.21230200  0.03983000  1
  Pb  Pb22  1  0.73564300  0.51340900  0.17143800  1
  Pb  Pb23  1  0.51450500  0.98055700  0.33117200  1
  Pb  Pb24  1  0.48528700  0.29983900  0.45826900  1
  Pb  Pb25  1  0.99197800  0.28274700  0.45461600  1
  Pb  Pb26  1  0.51471300  0.79983900  0.54173100  1
  Pb  Pb27  1  0.00802200  0.78274700  0.54538400  1
  Pb  Pb28  1  0.48549500  0.48055700  0.66882800  1
  Pb  Pb29  1  0.26435700  0.01340900  0.82856200  1
  Pb  Pb30  1  0.73637400  0.71230200  0.96017000  1
  Pb  Pb31  1  0.23952700  0.70798500  0.95486100  1
  S  S32  1  0.49707500  0.98608400  0.02292900  1
  S  S33  1  0.02604000  0.97944100  0.01928400  1
  S  S34  1  0.27763500  0.68954100  0.08086000  1
  S  S35  1  0.69722300  0.68800600  0.07511000  1
  S  S36  1  0.99163100  0.36686700  0.11378100  1
  S  S37  1  0.52543400  0.32307600  0.12282200  1
  S  S38  1  0.21249900  0.03282500  0.14168200  1
  S  S39  1  0.79996400  0.02587300  0.14482000  1
  S  S40  1  0.07719200  0.66798200  0.22542400  1
  S  S41  1  0.47352800  0.67230500  0.22030100  1
  S  S42  1  0.77331600  0.82482300  0.28001600  1
  S  S43  1  0.16722900  0.84019800  0.27100300  1
  S  S44  1  0.45485000  0.47574500  0.35501700  1
  S  S45  1  0.03841900  0.46811300  0.35733900  1
  S  S46  1  0.72749800  0.17364600  0.37635200  1
  S  S47  1  0.25646200  0.13438700  0.38642000  1
  S  S48  1  0.55913300  0.80936400  0.42683300  1
  S  S49  1  0.97150300  0.80761800  0.42185200  1
  S  S50  1  0.75531400  0.50481400  0.47969500  1
  S  S51  1  0.22750100  0.52421600  0.47863300  1
  S  S52  1  0.77249900  0.02421600  0.52136700  1
  S  S53  1  0.24468600  0.00481400  0.52030500  1
  S  S54  1  0.02849700  0.30761800  0.57814800  1
  S  S55  1  0.44086700  0.30936400  0.57316700  1
  S  S56  1  0.74353800  0.63438700  0.61358000  1
  S  S57  1  0.27250200  0.67364600  0.62364800  1
  S  S58  1  0.96158100  0.96811300  0.64266100  1
  S  S59  1  0.54515000  0.97574500  0.64498300  1
  S  S60  1  0.83277100  0.34019800  0.72899700  1
  S  S61  1  0.22668400  0.32482300  0.71998400  1
  S  S62  1  0.52647200  0.17230500  0.77969900  1
  S  S63  1  0.92280800  0.16798200  0.77457600  1
  S  S64  1  0.20003600  0.52587300  0.85518000  1
  S  S65  1  0.78750100  0.53282500  0.85831800  1
  S  S66  1  0.47456600  0.82307600  0.87717800  1
  S  S67  1  0.00836900  0.86686700  0.88621900  1
  S  S68  1  0.30277700  0.18800600  0.92489000  1
  S  S69  1  0.72236500  0.18954100  0.91914000  1
  S  S70  1  0.50292500  0.48608400  0.97707100  1
  S  S71  1  0.97396000  0.47944100  0.98071600  1
