# generated using pymatgen
data_NaSr9Fe5(MoO6)5
_symmetry_space_group_name_H-M   'P 1'
_cell_length_a   7.96656400
_cell_length_b   40.37080200
_cell_length_c   5.63027624
_cell_angle_alpha   90.00000000
_cell_angle_beta   134.99576169
_cell_angle_gamma   90.00000000
_symmetry_Int_Tables_number   1
_chemical_formula_structural   NaSr9Fe5(MoO6)5
_chemical_formula_sum   'Na2 Sr18 Fe10 Mo10 O60'
_cell_volume   1280.51672638
_cell_formula_units_Z   2
loop_
 _symmetry_equiv_pos_site_id
 _symmetry_equiv_pos_as_xyz
  1  'x, y, z'
loop_
 _atom_site_type_symbol
 _atom_site_label
 _atom_site_symmetry_multiplicity
 _atom_site_fract_x
 _atom_site_fract_y
 _atom_site_fract_z
 _atom_site_occupancy
  Na  Na0  1  0.50000000  0.05076700  0.00000000  1
  Na  Na1  1  0.00000000  0.55076700  0.00000000  1
  Sr  Sr2  1  0.00000000  0.05151500  0.00000000  1
  Sr  Sr3  1  0.50000000  0.14868200  0.00000000  1
  Sr  Sr4  1  0.00000000  0.24962500  0.00000000  1
  Sr  Sr5  1  0.00000000  0.14945400  0.00000000  1
  Sr  Sr6  1  0.50000000  0.34991200  0.00000000  1
  Sr  Sr7  1  0.50000000  0.24957500  0.00000000  1
  Sr  Sr8  1  0.00000000  0.45045400  0.00000000  1
  Sr  Sr9  1  0.00000000  0.34998000  0.00000000  1
  Sr  Sr10  1  0.50000000  0.45036300  0.00000000  1
  Sr  Sr11  1  0.50000000  0.55151500  0.00000000  1
  Sr  Sr12  1  0.00000000  0.64868200  0.00000000  1
  Sr  Sr13  1  0.50000000  0.74962500  0.00000000  1
  Sr  Sr14  1  0.50000000  0.64945400  0.00000000  1
  Sr  Sr15  1  0.00000000  0.84991200  0.00000000  1
  Sr  Sr16  1  0.00000000  0.74957500  0.00000000  1
  Sr  Sr17  1  0.50000000  0.95045400  0.00000000  1
  Sr  Sr18  1  0.50000000  0.84998000  0.00000000  1
  Sr  Sr19  1  0.00000000  0.95036300  0.00000000  1
  Fe  Fe20  1  0.50000000  0.09756700  0.50000000  1
  Fe  Fe21  1  0.50000000  0.00090500  0.50000000  1
  Fe  Fe22  1  0.00000000  0.20026600  0.50000000  1
  Fe  Fe23  1  0.50000000  0.29933800  0.50000000  1
  Fe  Fe24  1  0.00000000  0.40164000  0.50000000  1
  Fe  Fe25  1  0.00000000  0.59756700  0.50000000  1
  Fe  Fe26  1  0.00000000  0.50090500  0.50000000  1
  Fe  Fe27  1  0.50000000  0.70026600  0.50000000  1
  Fe  Fe28  1  0.00000000  0.79933800  0.50000000  1
  Fe  Fe29  1  0.50000000  0.90164000  0.50000000  1
  Mo  Mo30  1  0.00000000  0.10097100  0.50000000  1
  Mo  Mo31  1  0.50000000  0.19921200  0.50000000  1
  Mo  Mo32  1  0.00000000  0.30047200  0.50000000  1
  Mo  Mo33  1  0.00000000  0.00112500  0.50000000  1
  Mo  Mo34  1  0.50000000  0.39934900  0.50000000  1
  Mo  Mo35  1  0.50000000  0.60097100  0.50000000  1
  Mo  Mo36  1  0.00000000  0.69921200  0.50000000  1
  Mo  Mo37  1  0.50000000  0.80047200  0.50000000  1
  Mo  Mo38  1  0.50000000  0.50112500  0.50000000  1
  Mo  Mo39  1  0.00000000  0.89934900  0.50000000  1
  O  O40  1  0.50000000  0.04889400  0.50000000  1
  O  O41  1  0.78052100  0.10070100  0.99650900  1
  O  O42  1  0.26464850  0.09920350  0.55073600  1
  O  O43  1  0.00000000  0.15004400  0.50000000  1
  O  O44  1  0.00000000  0.04850100  0.50000000  1
  O  O45  1  0.73535150  0.09920350  0.44926400  1
  O  O46  1  0.28683400  0.19995900  0.01572300  1
  O  O47  1  0.21947900  0.10070100  0.00349100  1
  O  O48  1  0.78261350  0.19985050  0.56044800  1
  O  O49  1  0.50000000  0.25005400  0.50000000  1
  O  O50  1  0.50000000  0.14941400  0.50000000  1
  O  O51  1  0.21738650  0.19985050  0.43955200  1
  O  O52  1  0.77775950  0.30037150  0.99536400  1
  O  O53  1  0.71316600  0.19995900  0.98427700  1
  O  O54  1  0.27124900  0.30027000  0.55844800  1
  O  O55  1  0.00000000  0.35063000  0.50000000  1
  O  O56  1  0.00000000  0.25002100  0.50000000  1
  O  O57  1  0.72875100  0.30027000  0.44155200  1
  O  O58  1  0.28722700  0.40076500  0.01818100  1
  O  O59  1  0.22224050  0.30037150  0.00463600  1
  O  O60  1  0.78205800  0.40011200  0.56189500  1
  O  O61  1  0.50000000  0.45106000  0.50000000  1
  O  O62  1  0.50000000  0.35005100  0.50000000  1
  O  O63  1  0.21794200  0.40011200  0.43810500  1
  O  O64  1  0.76471300  0.49897700  0.98048400  1
  O  O65  1  0.71277300  0.40076500  0.98181900  1
  O  O66  1  0.28803900  0.49944600  0.55862600  1
  O  O67  1  0.00000000  0.45088000  0.50000000  1
  O  O68  1  0.71196100  0.49944600  0.44137400  1
  O  O69  1  0.23528700  0.49897700  0.01951600  1
  O  O70  1  0.00000000  0.54889400  0.50000000  1
  O  O71  1  0.28052100  0.60070100  0.99650900  1
  O  O72  1  0.76464850  0.59920350  0.55073600  1
  O  O73  1  0.50000000  0.65004400  0.50000000  1
  O  O74  1  0.50000000  0.54850100  0.50000000  1
  O  O75  1  0.23535150  0.59920350  0.44926400  1
  O  O76  1  0.78683400  0.69995900  0.01572300  1
  O  O77  1  0.71947900  0.60070100  0.00349100  1
  O  O78  1  0.28261350  0.69985050  0.56044800  1
  O  O79  1  0.00000000  0.75005400  0.50000000  1
  O  O80  1  0.00000000  0.64941400  0.50000000  1
  O  O81  1  0.71738650  0.69985050  0.43955200  1
  O  O82  1  0.27775950  0.80037150  0.99536400  1
  O  O83  1  0.21316600  0.69995900  0.98427700  1
  O  O84  1  0.77124900  0.80027000  0.55844800  1
  O  O85  1  0.50000000  0.85063000  0.50000000  1
  O  O86  1  0.50000000  0.75002100  0.50000000  1
  O  O87  1  0.22875100  0.80027000  0.44155200  1
  O  O88  1  0.78722700  0.90076500  0.01818100  1
  O  O89  1  0.72224050  0.80037150  0.00463600  1
  O  O90  1  0.28205800  0.90011200  0.56189500  1
  O  O91  1  0.00000000  0.95106000  0.50000000  1
  O  O92  1  0.00000000  0.85005100  0.50000000  1
  O  O93  1  0.71794200  0.90011200  0.43810500  1
  O  O94  1  0.26471300  0.99897700  0.98048400  1
  O  O95  1  0.21277300  0.90076500  0.98181900  1
  O  O96  1  0.78803900  0.99944600  0.55862600  1
  O  O97  1  0.50000000  0.95088000  0.50000000  1
  O  O98  1  0.21196100  0.99944600  0.44137400  1
  O  O99  1  0.73528700  0.99897700  0.01951600  1
