# generated using pymatgen
data_Sn2N2O
_symmetry_space_group_name_H-M   'P 1'
_cell_length_a   8.80493200
_cell_length_b   8.85014867
_cell_length_c   8.87121414
_cell_angle_alpha   109.46533339
_cell_angle_beta   109.42637466
_cell_angle_gamma   109.29260898
_symmetry_Int_Tables_number   1
_chemical_formula_structural   Sn2N2O
_chemical_formula_sum   'Sn16 N16 O8'
_cell_volume   533.65441416
_cell_formula_units_Z   8
loop_
 _symmetry_equiv_pos_site_id
 _symmetry_equiv_pos_as_xyz
  1  'x, y, z'
loop_
 _atom_site_type_symbol
 _atom_site_label
 _atom_site_symmetry_multiplicity
 _atom_site_fract_x
 _atom_site_fract_y
 _atom_site_fract_z
 _atom_site_occupancy
  Sn  Sn0  1  0.99446300  0.49615000  0.00161700  1
  Sn  Sn1  1  0.53960900  0.75521500  0.28802200  1
  Sn  Sn2  1  0.24397600  0.21023400  0.95898400  1
  Sn  Sn3  1  0.24704900  0.71835700  0.47244700  1
  Sn  Sn4  1  0.95697700  0.24301200  0.21397900  1
  Sn  Sn5  1  0.28848700  0.53206000  0.75326100  1
  Sn  Sn6  1  0.99809500  0.99956200  0.49870300  1
  Sn  Sn7  1  0.22245100  0.98176900  0.25638400  1
  Sn  Sn8  1  0.51259000  0.50846400  0.51366100  1
  Sn  Sn9  1  0.73128700  0.47392400  0.26340300  1
  Sn  Sn10  1  0.49995600  0.00212200  0.00018500  1
  Sn  Sn11  1  0.76676800  0.02336600  0.73582700  1
  Sn  Sn12  1  0.03836100  0.75822200  0.78168900  1
  Sn  Sn13  1  0.73817700  0.27792200  0.52755700  1
  Sn  Sn14  1  0.75351000  0.78706600  0.03458200  1
  Sn  Sn15  1  0.46673500  0.25395800  0.71305700  1
  N  N16  1  0.97683200  0.50693100  0.23986700  1
  N  N17  1  0.26532700  0.76030700  0.72933600  1
  N  N18  1  0.51761300  0.75535800  0.52353000  1
  N  N19  1  0.76187800  0.71888900  0.25778600  1
  N  N20  1  0.26890800  0.00365300  0.04121500  1
  N  N21  1  0.00251100  0.03885600  0.26415700  1
  N  N22  1  0.98739800  0.96092100  0.73003600  1
  N  N23  1  0.23248700  0.27486700  0.73845400  1
  N  N24  1  0.46092600  0.23783200  0.45819700  1
  N  N25  1  0.54999100  0.55056800  0.78111400  1
  N  N26  1  0.78262200  0.54639900  0.54637700  1
  N  N27  1  0.72606900  0.99663100  0.95083500  1
  N  N28  1  0.72769100  0.22838900  0.26803700  1
  N  N29  1  0.23767900  0.95905400  0.50054600  1
  N  N30  1  0.75862200  0.03746800  0.48866900  1
  N  N31  1  0.73205400  0.27037300  0.77689100  1
  O  O32  1  0.95744700  0.72150400  0.99107000  1
  O  O33  1  0.49182500  0.76968700  0.04448800  1
  O  O34  1  0.06252400  0.28766300  0.02130500  1
  O  O35  1  0.27057100  0.73068100  0.20588100  1
  O  O36  1  0.45108900  0.44938800  0.22067300  1
  O  O37  1  0.22319600  0.43944000  0.46282000  1
  O  O38  1  0.50818100  0.23747700  0.96268600  1
  O  O39  1  0.04807000  0.49626300  0.78267600  1
