# generated using pymatgen
data_KMn2O4
_symmetry_space_group_name_H-M   'P 1'
_cell_length_a   3.05066500
_cell_length_b   12.69088900
_cell_length_c   5.13478221
_cell_angle_alpha   90.00000000
_cell_angle_beta   93.35093733
_cell_angle_gamma   90.00000000
_symmetry_Int_Tables_number   1
_chemical_formula_structural   KMn2O4
_chemical_formula_sum   'K2 Mn4 O8'
_cell_volume   198.45654262
_cell_formula_units_Z   2
loop_
 _symmetry_equiv_pos_site_id
 _symmetry_equiv_pos_as_xyz
  1  'x, y, z'
loop_
 _atom_site_type_symbol
 _atom_site_label
 _atom_site_symmetry_multiplicity
 _atom_site_fract_x
 _atom_site_fract_y
 _atom_site_fract_z
 _atom_site_occupancy
  K  K0  1  0.02733700  0.75000000  0.66900800  1
  K  K1  1  0.97266300  0.25000000  0.33099200  1
  Mn  Mn2  1  0.50000000  0.00000000  0.50000000  1
  Mn  Mn3  1  0.50000000  0.50000000  0.50000000  1
  Mn  Mn4  1  0.00000000  0.50000000  0.00000000  1
  Mn  Mn5  1  0.00000000  0.00000000  0.00000000  1
  O  O6  1  0.54618000  0.58275600  0.81569300  1
  O  O7  1  0.54618000  0.91724400  0.81569300  1
  O  O8  1  0.01254600  0.42269700  0.65927900  1
  O  O9  1  0.01254600  0.07730300  0.65927900  1
  O  O10  1  0.45382000  0.08275600  0.18430700  1
  O  O11  1  0.45382000  0.41724400  0.18430700  1
  O  O12  1  0.98745400  0.57730300  0.34072100  1
  O  O13  1  0.98745400  0.92269700  0.34072100  1
