# generated using pymatgen
data_CuReO4
_symmetry_space_group_name_H-M   'P 1'
_cell_length_a   7.02608000
_cell_length_b   8.61425008
_cell_length_c   10.14818013
_cell_angle_alpha   97.28525794
_cell_angle_beta   106.51132446
_cell_angle_gamma   101.68001423
_symmetry_Int_Tables_number   1
_chemical_formula_structural   CuReO4
_chemical_formula_sum   'Cu6 Re6 O24'
_cell_volume   565.46619571
_cell_formula_units_Z   6
loop_
 _symmetry_equiv_pos_site_id
 _symmetry_equiv_pos_as_xyz
  1  'x, y, z'
loop_
 _atom_site_type_symbol
 _atom_site_label
 _atom_site_symmetry_multiplicity
 _atom_site_fract_x
 _atom_site_fract_y
 _atom_site_fract_z
 _atom_site_occupancy
  Cu  Cu0  1  0.95830600  0.79597000  0.01894400  1
  Cu  Cu1  1  0.46595200  0.38822300  0.23251300  1
  Cu  Cu2  1  0.75001600  0.19508600  0.41160600  1
  Cu  Cu3  1  0.24998400  0.80491400  0.58839400  1
  Cu  Cu4  1  0.53404800  0.61177700  0.76748700  1
  Cu  Cu5  1  0.04169400  0.20403000  0.98105600  1
  Re  Re6  1  0.49886200  0.77721800  0.10762600  1
  Re  Re7  1  0.99614300  0.46968800  0.25302300  1
  Re  Re8  1  0.20003900  0.08769100  0.34555500  1
  Re  Re9  1  0.79996100  0.91230900  0.65444500  1
  Re  Re10  1  0.00385700  0.53031200  0.74697700  1
  Re  Re11  1  0.50113800  0.22278200  0.89237400  1
  O  O12  1  0.24373100  0.77026700  0.01121500  1
  O  O13  1  0.93791400  0.60579700  0.14138400  1
  O  O14  1  0.35480200  0.21607200  0.00969800  1
  O  O15  1  0.50292400  0.60209500  0.18252900  1
  O  O16  1  0.59518500  0.95151000  0.23930100  1
  O  O17  1  0.06803200  0.99269000  0.16806100  1
  O  O18  1  0.76283700  0.36150900  0.27316800  1
  O  O19  1  0.13942700  0.34610000  0.18548700  1
  O  O20  1  0.44103600  0.22202600  0.36289000  1
  O  O21  1  0.25042500  0.93675400  0.44280100  1
  O  O22  1  0.95556000  0.80889500  0.58697900  1
  O  O23  1  0.15571500  0.58137600  0.41684500  1
  O  O24  1  0.84428500  0.41862400  0.58315500  1
  O  O25  1  0.04444000  0.19110500  0.41302100  1
  O  O26  1  0.74957500  0.06324600  0.55719900  1
  O  O27  1  0.55896400  0.77797400  0.63711000  1
  O  O28  1  0.86057300  0.65390000  0.81451300  1
  O  O29  1  0.23716300  0.63849100  0.72683200  1
  O  O30  1  0.93196800  0.00731000  0.83193900  1
  O  O31  1  0.40481500  0.04849000  0.76069900  1
  O  O32  1  0.49707600  0.39790500  0.81747100  1
  O  O33  1  0.64519800  0.78392800  0.99030200  1
  O  O34  1  0.06208600  0.39420300  0.85861600  1
  O  O35  1  0.75626900  0.22973300  0.98878500  1
