# generated using pymatgen
data_BrClO
_symmetry_space_group_name_H-M   'P 1'
_cell_length_a   15.63170818
_cell_length_b   15.63170818
_cell_length_c   6.41593239
_cell_angle_alpha   90.00000000
_cell_angle_beta   90.00000000
_cell_angle_gamma   120.00000000
_symmetry_Int_Tables_number   1
_chemical_formula_structural   BrClO
_chemical_formula_sum   'Br18 Cl18 O18'
_cell_volume   1357.69834332
_cell_formula_units_Z   18
loop_
 _symmetry_equiv_pos_site_id
 _symmetry_equiv_pos_as_xyz
  1  'x, y, z'
loop_
 _atom_site_type_symbol
 _atom_site_label
 _atom_site_symmetry_multiplicity
 _atom_site_fract_x
 _atom_site_fract_y
 _atom_site_fract_z
 _atom_site_occupancy
  Br  Br0  1  0.94473467  0.21192433  0.47307933  1
  Br  Br1  1  0.73281033  0.94473467  0.52692067  1
  Br  Br2  1  0.54525767  0.93385633  0.19358733  1
  Br  Br3  1  0.12140900  0.39947700  0.13974600  1
  Br  Br4  1  0.93385633  0.38859867  0.80641267  1
  Br  Br5  1  0.72193200  0.12140900  0.86025400  1
  Br  Br6  1  0.61140133  0.54525767  0.80641267  1
  Br  Br7  1  0.39947700  0.27806800  0.86025400  1
  Br  Br8  1  0.21192433  0.26718967  0.52692067  1
  Br  Br9  1  0.78807567  0.73281033  0.47307933  1
  Br  Br10  1  0.60052300  0.72193200  0.13974600  1
  Br  Br11  1  0.38859867  0.45474233  0.19358733  1
  Br  Br12  1  0.27806800  0.87859100  0.13974600  1
  Br  Br13  1  0.06614367  0.61140133  0.19358733  1
  Br  Br14  1  0.87859100  0.60052300  0.86025400  1
  Br  Br15  1  0.45474233  0.06614367  0.80641267  1
  Br  Br16  1  0.26718967  0.05526533  0.47307933  1
  Br  Br17  1  0.05526533  0.78807567  0.52692067  1
  Cl  Cl18  1  0.82146433  0.93433267  0.80039467  1
  Cl  Cl19  1  0.93433267  0.11286833  0.19960533  1
  Cl  Cl20  1  0.44620167  0.84520233  0.46706133  1
  Cl  Cl21  1  0.22046500  0.48813100  0.86627200  1
  Cl  Cl22  1  0.73233400  0.22046500  0.13372800  1
  Cl  Cl23  1  0.84520233  0.39900067  0.53293867  1
  Cl  Cl24  1  0.48813100  0.26766600  0.13372800  1
  Cl  Cl25  1  0.60099933  0.44620167  0.53293867  1
  Cl  Cl26  1  0.11286833  0.17853567  0.80039467  1
  Cl  Cl27  1  0.88713167  0.82146433  0.19960533  1
  Cl  Cl28  1  0.39900067  0.55379833  0.46706133  1
  Cl  Cl29  1  0.51186900  0.73233400  0.86627200  1
  Cl  Cl30  1  0.15479767  0.60099933  0.46706133  1
  Cl  Cl31  1  0.26766600  0.77953500  0.86627200  1
  Cl  Cl32  1  0.77953500  0.51186900  0.13372800  1
  Cl  Cl33  1  0.55379833  0.15479767  0.53293867  1
  Cl  Cl34  1  0.06566733  0.88713167  0.80039467  1
  Cl  Cl35  1  0.17853567  0.06566733  0.19960533  1
  O  O36  1  0.75955500  0.06751100  0.55371700  1
  O  O37  1  0.06751100  0.30795600  0.44628300  1
  O  O38  1  0.02537733  0.42622167  0.11294967  1
  O  O39  1  0.64128933  0.90711167  0.22038367  1
  O  O40  1  0.59915567  0.02537733  0.88705033  1
  O  O41  1  0.90711167  0.26582233  0.77961633  1
  O  O42  1  0.42622167  0.40084433  0.88705033  1
  O  O43  1  0.73417767  0.64128933  0.77961633  1
  O  O44  1  0.69204400  0.75955500  0.44628300  1
  O  O45  1  0.30795600  0.24044500  0.55371700  1
  O  O46  1  0.26582233  0.35871067  0.22038367  1
  O  O47  1  0.57377833  0.59915567  0.11294967  1
  O  O48  1  0.09288833  0.73417767  0.22038367  1
  O  O49  1  0.40084433  0.97462267  0.11294967  1
  O  O50  1  0.35871067  0.09288833  0.77961633  1
  O  O51  1  0.97462267  0.57377833  0.88705033  1
  O  O52  1  0.93248900  0.69204400  0.55371700  1
  O  O53  1  0.24044500  0.93248900  0.44628300  1
