# generated using pymatgen
data_LiV(CO3)2
_symmetry_space_group_name_H-M   'P 1'
_cell_length_a   6.20540092
_cell_length_b   4.76125300
_cell_length_c   7.42650220
_cell_angle_alpha   90.00000000
_cell_angle_beta   107.63724864
_cell_angle_gamma   90.00000000
_symmetry_Int_Tables_number   1
_chemical_formula_structural   LiV(CO3)2
_chemical_formula_sum   'Li2 V2 C4 O12'
_cell_volume   209.10553846
_cell_formula_units_Z   2
loop_
 _symmetry_equiv_pos_site_id
 _symmetry_equiv_pos_as_xyz
  1  'x, y, z'
loop_
 _atom_site_type_symbol
 _atom_site_label
 _atom_site_symmetry_multiplicity
 _atom_site_fract_x
 _atom_site_fract_y
 _atom_site_fract_z
 _atom_site_occupancy
  Li  Li0  1  0.31840450  0.02792500  0.43017550  1
  Li  Li1  1  0.68159550  0.52792500  0.56982450  1
  V  V2  1  0.73877850  0.50536800  0.11648450  1
  V  V3  1  0.26122150  0.00536800  0.88351550  1
  C  C4  1  0.74038950  0.02412100  0.36295650  1
  C  C5  1  0.25234350  0.45937200  0.11520350  1
  C  C6  1  0.74765650  0.95937200  0.88479650  1
  C  C7  1  0.25961050  0.52412100  0.63704350  1
  O  O8  1  0.63799050  0.91767700  0.47046350  1
  O  O9  1  0.75686450  0.30486000  0.35513550  1
  O  O10  1  0.83457450  0.88002100  0.26125550  1
  O  O11  1  0.07184650  0.55267100  0.13704150  1
  O  O12  1  0.30507850  0.19409600  0.13616550  1
  O  O13  1  0.60457950  0.13388900  0.92732750  1
  O  O14  1  0.39542050  0.63388900  0.07267250  1
  O  O15  1  0.69492150  0.69409600  0.86383450  1
  O  O16  1  0.92815350  0.05267100  0.86295850  1
  O  O17  1  0.16542550  0.38002100  0.73874450  1
  O  O18  1  0.24313550  0.80486000  0.64486450  1
  O  O19  1  0.36200950  0.41767700  0.52953650  1
