# generated using pymatgen
data_Ta2H15N6Cl7
_symmetry_space_group_name_H-M   'P 1'
_cell_length_a   10.18724400
_cell_length_b   20.82085400
_cell_length_c   7.93989600
_cell_angle_alpha   90.00000000
_cell_angle_beta   90.00000000
_cell_angle_gamma   90.00000000
_symmetry_Int_Tables_number   1
_chemical_formula_structural   Ta2H15N6Cl7
_chemical_formula_sum   'Ta8 H60 N24 Cl28'
_cell_volume   1684.10847355
_cell_formula_units_Z   4
loop_
 _symmetry_equiv_pos_site_id
 _symmetry_equiv_pos_as_xyz
  1  'x, y, z'
loop_
 _atom_site_type_symbol
 _atom_site_label
 _atom_site_symmetry_multiplicity
 _atom_site_fract_x
 _atom_site_fract_y
 _atom_site_fract_z
 _atom_site_occupancy
  Ta  Ta0  1  0.00000000  0.00000000  0.50000000  1
  Ta  Ta1  1  0.00000000  0.00000000  0.00000000  1
  Ta  Ta2  1  0.00000000  0.16051800  0.25000000  1
  Ta  Ta3  1  0.50000000  0.33948200  0.75000000  1
  Ta  Ta4  1  0.50000000  0.50000000  0.50000000  1
  Ta  Ta5  1  0.50000000  0.50000000  0.00000000  1
  Ta  Ta6  1  0.50000000  0.66051800  0.25000000  1
  Ta  Ta7  1  0.00000000  0.83948200  0.75000000  1
  H  H8  1  0.66937600  0.38105600  0.25000000  1
  H  H9  1  0.71373150  0.31401450  0.35529700  1
  H  H10  1  0.71373150  0.31401450  0.14470300  1
  H  H11  1  0.82918000  0.36061500  0.25000000  1
  H  H12  1  0.91622350  0.40845350  0.75000000  1
  H  H13  1  0.00000000  0.07806600  0.75000000  1
  H  H14  1  0.00000000  0.12676400  0.53094700  1
  H  H15  1  0.00000000  0.12676400  0.96905300  1
  H  H16  1  0.00000000  0.46636900  0.64658200  1
  H  H17  1  0.00000000  0.46636900  0.85341800  1
  H  H18  1  0.08377650  0.40845350  0.75000000  1
  H  H19  1  0.16937600  0.11894400  0.75000000  1
  H  H20  1  0.17082000  0.36061500  0.25000000  1
  H  H21  1  0.21373150  0.18598550  0.64470300  1
  H  H22  1  0.21373150  0.18598550  0.85529700  1
  H  H23  1  0.28626850  0.31401450  0.35529700  1
  H  H24  1  0.28626850  0.31401450  0.14470300  1
  H  H25  1  0.32918000  0.13938500  0.75000000  1
  H  H26  1  0.33062400  0.38105600  0.25000000  1
  H  H27  1  0.41622350  0.09154650  0.25000000  1
  H  H28  1  0.50000000  0.03363100  0.35341800  1
  H  H29  1  0.50000000  0.03363100  0.14658200  1
  H  H30  1  0.50000000  0.37323600  0.46905300  1
  H  H31  1  0.50000000  0.42193400  0.25000000  1
  H  H32  1  0.50000000  0.37323600  0.03094700  1
  H  H33  1  0.58377650  0.09154650  0.25000000  1
  H  H34  1  0.67082000  0.13938500  0.75000000  1
  H  H35  1  0.78626850  0.18598550  0.64470300  1
  H  H36  1  0.78626850  0.18598550  0.85529700  1
  H  H37  1  0.83062400  0.11894400  0.75000000  1
  H  H38  1  0.16937600  0.88105600  0.25000000  1
  H  H39  1  0.21373150  0.81401450  0.35529700  1
  H  H40  1  0.21373150  0.81401450  0.14470300  1
  H  H41  1  0.32918000  0.86061500  0.25000000  1
  H  H42  1  0.41622350  0.90845350  0.75000000  1
  H  H43  1  0.50000000  0.57806600  0.75000000  1
  H  H44  1  0.50000000  0.62676400  0.53094700  1
  H  H45  1  0.50000000  0.62676400  0.96905300  1
  H  H46  1  0.50000000  0.96636900  0.64658200  1
  H  H47  1  0.50000000  0.96636900  0.85341800  1
  H  H48  1  0.58377650  0.90845350  0.75000000  1
  H  H49  1  0.66937600  0.61894400  0.75000000  1
  H  H50  1  0.67082000  0.86061500  0.25000000  1
  H  H51  1  0.71373150  0.68598550  0.64470300  1
  H  H52  1  0.71373150  0.68598550  0.85529700  1
  H  H53  1  0.78626850  0.81401450  0.35529700  1
  H  H54  1  0.78626850  0.81401450  0.14470300  1
  H  H55  1  0.82918000  0.63938500  0.75000000  1
  H  H56  1  0.83062400  0.88105600  0.25000000  1
  H  H57  1  0.91622350  0.59154650  0.25000000  1
  H  H58  1  0.00000000  0.53363100  0.35341800  1
  H  H59  1  0.00000000  0.53363100  0.14658200  1
  H  H60  1  0.00000000  0.87323600  0.46905300  1
  H  H61  1  0.00000000  0.92193400  0.25000000  1
  H  H62  1  0.00000000  0.87323600  0.03094700  1
  H  H63  1  0.08377650  0.59154650  0.25000000  1
  H  H64  1  0.17082000  0.63938500  0.75000000  1
  H  H65  1  0.28626850  0.68598550  0.64470300  1
  H  H66  1  0.28626850  0.68598550  0.85529700  1
  H  H67  1  0.33062400  0.61894400  0.75000000  1
  N  N68  1  0.73070600  0.34166100  0.25000000  1
  N  N69  1  0.00000000  0.02874200  0.75000000  1
  N  N70  1  0.00000000  0.09630100  0.07112600  1
  N  N71  1  0.00000000  0.09630100  0.42887400  1
  N  N72  1  0.00000000  0.43646200  0.75000000  1
  N  N73  1  0.23070600  0.15833900  0.75000000  1
  N  N74  1  0.26929400  0.34166100  0.25000000  1
  N  N75  1  0.50000000  0.40369900  0.57112600  1
  N  N76  1  0.50000000  0.06353800  0.25000000  1
  N  N77  1  0.50000000  0.40369900  0.92887400  1
  N  N78  1  0.50000000  0.47125800  0.25000000  1
  N  N79  1  0.76929400  0.15833900  0.75000000  1
  N  N80  1  0.23070600  0.84166100  0.25000000  1
  N  N81  1  0.50000000  0.52874200  0.75000000  1
  N  N82  1  0.50000000  0.59630100  0.07112600  1
  N  N83  1  0.50000000  0.59630100  0.42887400  1
  N  N84  1  0.50000000  0.93646200  0.75000000  1
  N  N85  1  0.73070600  0.65833900  0.75000000  1
  N  N86  1  0.76929400  0.84166100  0.25000000  1
  N  N87  1  0.00000000  0.90369900  0.57112600  1
  N  N88  1  0.00000000  0.56353800  0.25000000  1
  N  N89  1  0.00000000  0.90369900  0.92887400  1
  N  N90  1  0.00000000  0.97125800  0.25000000  1
  N  N91  1  0.26929400  0.65833900  0.75000000  1
  Cl  Cl92  1  0.73855300  0.32621600  0.75000000  1
  Cl  Cl93  1  0.00000000  0.40695600  0.25000000  1
  Cl  Cl94  1  0.00000000  0.24511900  0.02326700  1
  Cl  Cl95  1  0.00000000  0.24511900  0.47673300  1
  Cl  Cl96  1  0.23840100  0.00000000  0.50000000  1
  Cl  Cl97  1  0.23840100  0.00000000  0.00000000  1
  Cl  Cl98  1  0.23855300  0.17378400  0.25000000  1
  Cl  Cl99  1  0.26144700  0.32621600  0.75000000  1
  Cl  Cl100  1  0.50000000  0.09304400  0.75000000  1
  Cl  Cl101  1  0.50000000  0.25488100  0.52326700  1
  Cl  Cl102  1  0.50000000  0.25488100  0.97673300  1
  Cl  Cl103  1  0.76144700  0.17378400  0.25000000  1
  Cl  Cl104  1  0.76159900  0.00000000  0.50000000  1
  Cl  Cl105  1  0.76159900  0.00000000  0.00000000  1
  Cl  Cl106  1  0.23855300  0.82621600  0.75000000  1
  Cl  Cl107  1  0.50000000  0.90695600  0.25000000  1
  Cl  Cl108  1  0.50000000  0.74511900  0.02326700  1
  Cl  Cl109  1  0.50000000  0.74511900  0.47673300  1
  Cl  Cl110  1  0.73840100  0.50000000  0.50000000  1
  Cl  Cl111  1  0.73840100  0.50000000  0.00000000  1
  Cl  Cl112  1  0.73855300  0.67378400  0.25000000  1
  Cl  Cl113  1  0.76144700  0.82621600  0.75000000  1
  Cl  Cl114  1  0.00000000  0.59304400  0.75000000  1
  Cl  Cl115  1  0.00000000  0.75488100  0.52326700  1
  Cl  Cl116  1  0.00000000  0.75488100  0.97673300  1
  Cl  Cl117  1  0.26144700  0.67378400  0.25000000  1
  Cl  Cl118  1  0.26159900  0.50000000  0.50000000  1
  Cl  Cl119  1  0.26159900  0.50000000  0.00000000  1
