# generated using pymatgen
data_Na4Sb2C4SO16
_symmetry_space_group_name_H-M   'P 1'
_cell_length_a   14.28913400
_cell_length_b   14.59649600
_cell_length_c   14.66426000
_cell_angle_alpha   90.00000000
_cell_angle_beta   90.00000000
_cell_angle_gamma   90.00000000
_symmetry_Int_Tables_number   1
_chemical_formula_structural   Na4Sb2C4SO16
_chemical_formula_sum   'Na32 Sb16 C32 S8 O128'
_cell_volume   3058.54358513
_cell_formula_units_Z   8
loop_
 _symmetry_equiv_pos_site_id
 _symmetry_equiv_pos_as_xyz
  1  'x, y, z'
loop_
 _atom_site_type_symbol
 _atom_site_label
 _atom_site_symmetry_multiplicity
 _atom_site_fract_x
 _atom_site_fract_y
 _atom_site_fract_z
 _atom_site_occupancy
  Na  Na0  1  0.50000000  0.70661800  0.00000000  1
  Na  Na1  1  0.50000000  0.00000000  0.29353900  1
  Na  Na2  1  0.20463000  0.00000000  0.00000000  1
  Na  Na3  1  0.79537000  0.00000000  0.00000000  1
  Na  Na4  1  0.94657100  0.75000000  0.25000000  1
  Na  Na5  1  0.50000000  0.29338200  0.00000000  1
  Na  Na6  1  0.00000000  0.00000000  0.20646100  1
  Na  Na7  1  0.55342900  0.75000000  0.25000000  1
  Na  Na8  1  0.50000000  0.20661800  0.50000000  1
  Na  Na9  1  0.50000000  0.50000000  0.79353900  1
  Na  Na10  1  0.20463000  0.50000000  0.50000000  1
  Na  Na11  1  0.79537000  0.50000000  0.50000000  1
  Na  Na12  1  0.94657100  0.25000000  0.75000000  1
  Na  Na13  1  0.50000000  0.79338200  0.50000000  1
  Na  Na14  1  0.00000000  0.50000000  0.70646100  1
  Na  Na15  1  0.55342900  0.25000000  0.75000000  1
  Na  Na16  1  0.00000000  0.70661800  0.50000000  1
  Na  Na17  1  0.00000000  0.00000000  0.79353900  1
  Na  Na18  1  0.70463000  0.00000000  0.50000000  1
  Na  Na19  1  0.29537000  0.00000000  0.50000000  1
  Na  Na20  1  0.44657100  0.75000000  0.75000000  1
  Na  Na21  1  0.00000000  0.29338200  0.50000000  1
  Na  Na22  1  0.50000000  0.00000000  0.70646100  1
  Na  Na23  1  0.05342900  0.75000000  0.75000000  1
  Na  Na24  1  0.00000000  0.20661800  0.00000000  1
  Na  Na25  1  0.00000000  0.50000000  0.29353900  1
  Na  Na26  1  0.70463000  0.50000000  0.00000000  1
  Na  Na27  1  0.29537000  0.50000000  0.00000000  1
  Na  Na28  1  0.44657100  0.25000000  0.25000000  1
  Na  Na29  1  0.00000000  0.79338200  0.00000000  1
  Na  Na30  1  0.50000000  0.50000000  0.20646100  1
  Na  Na31  1  0.05342900  0.25000000  0.25000000  1
  Sb  Sb32  1  0.63036700  0.12215650  0.12280850  1
  Sb  Sb33  1  0.13036700  0.87784350  0.37719150  1
  Sb  Sb34  1  0.86963300  0.12215650  0.37719150  1
  Sb  Sb35  1  0.36963300  0.87784350  0.12280850  1
  Sb  Sb36  1  0.63036700  0.62215650  0.62280850  1
  Sb  Sb37  1  0.13036700  0.37784350  0.87719150  1
  Sb  Sb38  1  0.86963300  0.62215650  0.87719150  1
  Sb  Sb39  1  0.36963300  0.37784350  0.62280850  1
  Sb  Sb40  1  0.13036700  0.12215650  0.62280850  1
  Sb  Sb41  1  0.63036700  0.87784350  0.87719150  1
  Sb  Sb42  1  0.36963300  0.12215650  0.87719150  1
  Sb  Sb43  1  0.86963300  0.87784350  0.62280850  1
  Sb  Sb44  1  0.13036700  0.62215650  0.12280850  1
  Sb  Sb45  1  0.63036700  0.37784350  0.37719150  1
  Sb  Sb46  1  0.36963300  0.62215650  0.37719150  1
  Sb  Sb47  1  0.86963300  0.37784350  0.12280850  1
  C  C48  1  0.59520400  0.90659550  0.09375650  1
  C  C49  1  0.64803600  0.15186200  0.34590500  1
  C  C50  1  0.85196400  0.34813800  0.34590500  1
  C  C51  1  0.85196400  0.15186200  0.15409500  1
  C  C52  1  0.40479600  0.09340450  0.09375650  1
  C  C53  1  0.90479600  0.90659550  0.40624350  1
  C  C54  1  0.09520400  0.09340450  0.40624350  1
  C  C55  1  0.64803600  0.34813800  0.15409500  1
  C  C56  1  0.59520400  0.40659550  0.59375650  1
  C  C57  1  0.64803600  0.65186200  0.84590500  1
  C  C58  1  0.85196400  0.84813800  0.84590500  1
  C  C59  1  0.85196400  0.65186200  0.65409500  1
  C  C60  1  0.40479600  0.59340450  0.59375650  1
  C  C61  1  0.90479600  0.40659550  0.90624350  1
  C  C62  1  0.09520400  0.59340450  0.90624350  1
  C  C63  1  0.64803600  0.84813800  0.65409500  1
  C  C64  1  0.09520400  0.90659550  0.59375650  1
  C  C65  1  0.14803600  0.15186200  0.84590500  1
  C  C66  1  0.35196400  0.34813800  0.84590500  1
  C  C67  1  0.35196400  0.15186200  0.65409500  1
  C  C68  1  0.90479600  0.09340450  0.59375650  1
  C  C69  1  0.40479600  0.90659550  0.90624350  1
  C  C70  1  0.59520400  0.09340450  0.90624350  1
  C  C71  1  0.14803600  0.34813800  0.65409500  1
  C  C72  1  0.09520400  0.40659550  0.09375650  1
  C  C73  1  0.14803600  0.65186200  0.34590500  1
  C  C74  1  0.35196400  0.84813800  0.34590500  1
  C  C75  1  0.35196400  0.65186200  0.15409500  1
  C  C76  1  0.90479600  0.59340450  0.09375650  1
  C  C77  1  0.40479600  0.40659550  0.40624350  1
  C  C78  1  0.59520400  0.59340450  0.40624350  1
  C  C79  1  0.14803600  0.84813800  0.15409500  1
  S  S80  1  0.75000000  0.75000000  0.25000000  1
  S  S81  1  0.00000000  0.00000000  0.00000000  1
  S  S82  1  0.75000000  0.25000000  0.75000000  1
  S  S83  1  0.00000000  0.50000000  0.50000000  1
  S  S84  1  0.25000000  0.75000000  0.75000000  1
  S  S85  1  0.50000000  0.00000000  0.50000000  1
  S  S86  1  0.25000000  0.25000000  0.25000000  1
  S  S87  1  0.50000000  0.50000000  0.00000000  1
  O  O88  1  0.53269450  0.89895900  0.15779550  1
  O  O89  1  0.58845650  0.21850700  0.35584350  1
  O  O90  1  0.59748400  0.84765050  0.02764450  1
  O  O91  1  0.63961750  0.09434850  0.27920600  1
  O  O92  1  0.65480400  0.97445750  0.09434950  1
  O  O93  1  0.68797500  0.69133250  0.19135250  1
  O  O94  1  0.68797500  0.80866750  0.30864750  1
  O  O95  1  0.71555550  0.14201000  0.40544150  1
  O  O96  1  0.78444450  0.14201000  0.09455850  1
  O  O97  1  0.78444450  0.35799000  0.40544150  1
  O  O98  1  0.81202500  0.80866750  0.19135250  1
  O  O99  1  0.81202500  0.69133250  0.30864750  1
  O  O100  1  0.34519600  0.02554250  0.09434950  1
  O  O101  1  0.84519600  0.97445750  0.40565050  1
  O  O102  1  0.86038250  0.09434850  0.22079400  1
  O  O103  1  0.86038250  0.40565150  0.27920600  1
  O  O104  1  0.40251600  0.15234950  0.02764450  1
  O  O105  1  0.90251600  0.84765050  0.47235550  1
  O  O106  1  0.91154350  0.28149300  0.35584350  1
  O  O107  1  0.91154350  0.21850700  0.14415650  1
  O  O108  1  0.93993100  0.94067600  0.05917200  1
  O  O109  1  0.93993100  0.55932400  0.44082800  1
  O  O110  1  0.96730550  0.89895900  0.34220450  1
  O  O111  1  0.46730550  0.10104100  0.15779550  1
  O  O112  1  0.03269450  0.10104100  0.34220450  1
  O  O113  1  0.56006900  0.55932400  0.05917200  1
  O  O114  1  0.56006900  0.94067600  0.44082800  1
  O  O115  1  0.58845650  0.28149300  0.14415650  1
  O  O116  1  0.09748400  0.15234950  0.47235550  1
  O  O117  1  0.63961750  0.40565150  0.22079400  1
  O  O118  1  0.15480400  0.02554250  0.40565050  1
  O  O119  1  0.71555550  0.35799000  0.09455850  1
  O  O120  1  0.53269450  0.39895900  0.65779550  1
  O  O121  1  0.58845650  0.71850700  0.85584350  1
  O  O122  1  0.59748400  0.34765050  0.52764450  1
  O  O123  1  0.63961750  0.59434850  0.77920600  1
  O  O124  1  0.65480400  0.47445750  0.59434950  1
  O  O125  1  0.68797500  0.19133250  0.69135250  1
  O  O126  1  0.68797500  0.30866750  0.80864750  1
  O  O127  1  0.71555550  0.64201000  0.90544150  1
  O  O128  1  0.78444450  0.64201000  0.59455850  1
  O  O129  1  0.78444450  0.85799000  0.90544150  1
  O  O130  1  0.81202500  0.30866750  0.69135250  1
  O  O131  1  0.81202500  0.19133250  0.80864750  1
  O  O132  1  0.34519600  0.52554250  0.59434950  1
  O  O133  1  0.84519600  0.47445750  0.90565050  1
  O  O134  1  0.86038250  0.59434850  0.72079400  1
  O  O135  1  0.86038250  0.90565150  0.77920600  1
  O  O136  1  0.40251600  0.65234950  0.52764450  1
  O  O137  1  0.90251600  0.34765050  0.97235550  1
  O  O138  1  0.91154350  0.78149300  0.85584350  1
  O  O139  1  0.91154350  0.71850700  0.64415650  1
  O  O140  1  0.93993100  0.44067600  0.55917200  1
  O  O141  1  0.93993100  0.05932400  0.94082800  1
  O  O142  1  0.96730550  0.39895900  0.84220450  1
  O  O143  1  0.46730550  0.60104100  0.65779550  1
  O  O144  1  0.03269450  0.60104100  0.84220450  1
  O  O145  1  0.56006900  0.05932400  0.55917200  1
  O  O146  1  0.56006900  0.44067600  0.94082800  1
  O  O147  1  0.58845650  0.78149300  0.64415650  1
  O  O148  1  0.09748400  0.65234950  0.97235550  1
  O  O149  1  0.63961750  0.90565150  0.72079400  1
  O  O150  1  0.15480400  0.52554250  0.90565050  1
  O  O151  1  0.71555550  0.85799000  0.59455850  1
  O  O152  1  0.03269450  0.89895900  0.65779550  1
  O  O153  1  0.08845650  0.21850700  0.85584350  1
  O  O154  1  0.09748400  0.84765050  0.52764450  1
  O  O155  1  0.13961750  0.09434850  0.77920600  1
  O  O156  1  0.15480400  0.97445750  0.59434950  1
  O  O157  1  0.18797500  0.69133250  0.69135250  1
  O  O158  1  0.18797500  0.80866750  0.80864750  1
  O  O159  1  0.21555550  0.14201000  0.90544150  1
  O  O160  1  0.28444450  0.14201000  0.59455850  1
  O  O161  1  0.28444450  0.35799000  0.90544150  1
  O  O162  1  0.31202500  0.80866750  0.69135250  1
  O  O163  1  0.31202500  0.69133250  0.80864750  1
  O  O164  1  0.84519600  0.02554250  0.59434950  1
  O  O165  1  0.34519600  0.97445750  0.90565050  1
  O  O166  1  0.36038250  0.09434850  0.72079400  1
  O  O167  1  0.36038250  0.40565150  0.77920600  1
  O  O168  1  0.90251600  0.15234950  0.52764450  1
  O  O169  1  0.40251600  0.84765050  0.97235550  1
  O  O170  1  0.41154350  0.28149300  0.85584350  1
  O  O171  1  0.41154350  0.21850700  0.64415650  1
  O  O172  1  0.43993100  0.94067600  0.55917200  1
  O  O173  1  0.43993100  0.55932400  0.94082800  1
  O  O174  1  0.46730550  0.89895900  0.84220450  1
  O  O175  1  0.96730550  0.10104100  0.65779550  1
  O  O176  1  0.53269450  0.10104100  0.84220450  1
  O  O177  1  0.06006900  0.55932400  0.55917200  1
  O  O178  1  0.06006900  0.94067600  0.94082800  1
  O  O179  1  0.08845650  0.28149300  0.64415650  1
  O  O180  1  0.59748400  0.15234950  0.97235550  1
  O  O181  1  0.13961750  0.40565150  0.72079400  1
  O  O182  1  0.65480400  0.02554250  0.90565050  1
  O  O183  1  0.21555550  0.35799000  0.59455850  1
  O  O184  1  0.03269450  0.39895900  0.15779550  1
  O  O185  1  0.08845650  0.71850700  0.35584350  1
  O  O186  1  0.09748400  0.34765050  0.02764450  1
  O  O187  1  0.13961750  0.59434850  0.27920600  1
  O  O188  1  0.15480400  0.47445750  0.09434950  1
  O  O189  1  0.18797500  0.19133250  0.19135250  1
  O  O190  1  0.18797500  0.30866750  0.30864750  1
  O  O191  1  0.21555550  0.64201000  0.40544150  1
  O  O192  1  0.28444450  0.64201000  0.09455850  1
  O  O193  1  0.28444450  0.85799000  0.40544150  1
  O  O194  1  0.31202500  0.30866750  0.19135250  1
  O  O195  1  0.31202500  0.19133250  0.30864750  1
  O  O196  1  0.84519600  0.52554250  0.09434950  1
  O  O197  1  0.34519600  0.47445750  0.40565050  1
  O  O198  1  0.36038250  0.59434850  0.22079400  1
  O  O199  1  0.36038250  0.90565150  0.27920600  1
  O  O200  1  0.90251600  0.65234950  0.02764450  1
  O  O201  1  0.40251600  0.34765050  0.47235550  1
  O  O202  1  0.41154350  0.78149300  0.35584350  1
  O  O203  1  0.41154350  0.71850700  0.14415650  1
  O  O204  1  0.43993100  0.44067600  0.05917200  1
  O  O205  1  0.43993100  0.05932400  0.44082800  1
  O  O206  1  0.46730550  0.39895900  0.34220450  1
  O  O207  1  0.96730550  0.60104100  0.15779550  1
  O  O208  1  0.53269450  0.60104100  0.34220450  1
  O  O209  1  0.06006900  0.05932400  0.05917200  1
  O  O210  1  0.06006900  0.44067600  0.44082800  1
  O  O211  1  0.08845650  0.78149300  0.14415650  1
  O  O212  1  0.59748400  0.65234950  0.47235550  1
  O  O213  1  0.13961750  0.90565150  0.22079400  1
  O  O214  1  0.65480400  0.52554250  0.40565050  1
  O  O215  1  0.21555550  0.85799000  0.09455850  1
