# generated using pymatgen
data_TaAsO4
_symmetry_space_group_name_H-M   'P 1'
_cell_length_a   3.94032800
_cell_length_b   14.61649400
_cell_length_c   5.67800100
_cell_angle_alpha   90.00000000
_cell_angle_beta   90.00000000
_cell_angle_gamma   90.00000000
_symmetry_Int_Tables_number   1
_chemical_formula_structural   TaAsO4
_chemical_formula_sum   'Ta4 As4 O16'
_cell_volume   327.01754367
_cell_formula_units_Z   4
loop_
 _symmetry_equiv_pos_site_id
 _symmetry_equiv_pos_as_xyz
  1  'x, y, z'
loop_
 _atom_site_type_symbol
 _atom_site_label
 _atom_site_symmetry_multiplicity
 _atom_site_fract_x
 _atom_site_fract_y
 _atom_site_fract_z
 _atom_site_occupancy
  Ta  Ta0  1  0.50000000  0.90900800  0.69923900  1
  Ta  Ta1  1  0.00000000  0.59099200  0.19923900  1
  Ta  Ta2  1  0.00000000  0.40900800  0.69923900  1
  Ta  Ta3  1  0.50000000  0.09099200  0.19923900  1
  As  As4  1  0.50000000  0.67892500  0.80900400  1
  As  As5  1  0.00000000  0.82107500  0.30900400  1
  As  As6  1  0.00000000  0.17892500  0.80900400  1
  As  As7  1  0.50000000  0.32107500  0.30900400  1
  O  O8  1  0.50000000  0.60774500  0.12325800  1
  O  O9  1  0.50000000  0.79637000  0.89707400  1
  O  O10  1  0.50000000  0.82670900  0.41026000  1
  O  O11  1  0.50000000  0.98257300  0.97636400  1
  O  O12  1  0.00000000  0.51742700  0.47636400  1
  O  O13  1  0.00000000  0.67329100  0.91026000  1
  O  O14  1  0.00000000  0.70363000  0.39707400  1
  O  O15  1  0.00000000  0.89225500  0.62325800  1
  O  O16  1  0.00000000  0.10774500  0.12325800  1
  O  O17  1  0.00000000  0.29637000  0.89707400  1
  O  O18  1  0.00000000  0.32670900  0.41026000  1
  O  O19  1  0.00000000  0.48257300  0.97636400  1
  O  O20  1  0.50000000  0.01742700  0.47636400  1
  O  O21  1  0.50000000  0.17329100  0.91026000  1
  O  O22  1  0.50000000  0.20363000  0.39707400  1
  O  O23  1  0.50000000  0.39225500  0.62325800  1
