# generated using pymatgen
data_La2MgO4
_symmetry_space_group_name_H-M   'P 1'
_cell_length_a   5.57143400
_cell_length_b   12.47654600
_cell_length_c   5.67019600
_cell_angle_alpha   90.00000000
_cell_angle_beta   90.00000000
_cell_angle_gamma   90.00000000
_symmetry_Int_Tables_number   1
_chemical_formula_structural   La2MgO4
_chemical_formula_sum   'La8 Mg4 O16'
_cell_volume   394.14809657
_cell_formula_units_Z   4
loop_
 _symmetry_equiv_pos_site_id
 _symmetry_equiv_pos_as_xyz
  1  'x, y, z'
loop_
 _atom_site_type_symbol
 _atom_site_label
 _atom_site_symmetry_multiplicity
 _atom_site_fract_x
 _atom_site_fract_y
 _atom_site_fract_z
 _atom_site_occupancy
  La  La0  1  0.00000000  0.86232300  0.48703700  1
  La  La1  1  0.00000000  0.63767700  0.98703700  1
  La  La2  1  0.50000000  0.86232300  0.01296300  1
  La  La3  1  0.50000000  0.63767700  0.51296300  1
  La  La4  1  0.50000000  0.36232300  0.48703700  1
  La  La5  1  0.50000000  0.13767700  0.98703700  1
  La  La6  1  0.00000000  0.36232300  0.01296300  1
  La  La7  1  0.00000000  0.13767700  0.51296300  1
  Mg  Mg8  1  0.50000000  0.00000000  0.50000000  1
  Mg  Mg9  1  0.00000000  0.00000000  0.00000000  1
  Mg  Mg10  1  0.00000000  0.50000000  0.50000000  1
  Mg  Mg11  1  0.50000000  0.50000000  0.00000000  1
  O  O12  1  0.25000000  0.51497400  0.25000000  1
  O  O13  1  0.00000000  0.82096600  0.06330400  1
  O  O14  1  0.00000000  0.67903400  0.56330400  1
  O  O15  1  0.75000000  0.51497400  0.25000000  1
  O  O16  1  0.75000000  0.98502600  0.75000000  1
  O  O17  1  0.50000000  0.67903400  0.93669600  1
  O  O18  1  0.50000000  0.82096600  0.43669600  1
  O  O19  1  0.25000000  0.98502600  0.75000000  1
  O  O20  1  0.75000000  0.01497400  0.25000000  1
  O  O21  1  0.50000000  0.32096600  0.06330400  1
  O  O22  1  0.50000000  0.17903400  0.56330400  1
  O  O23  1  0.25000000  0.01497400  0.25000000  1
  O  O24  1  0.25000000  0.48502600  0.75000000  1
  O  O25  1  0.00000000  0.17903400  0.93669600  1
  O  O26  1  0.00000000  0.32096600  0.43669600  1
  O  O27  1  0.75000000  0.48502600  0.75000000  1
