# generated using pymatgen
data_Ba4Sn3O10
_symmetry_space_group_name_H-M   'P 1'
_cell_length_a   6.05277000
_cell_length_b   13.60652600
_cell_length_c   14.08963300
_cell_angle_alpha   90.00000000
_cell_angle_beta   90.00000000
_cell_angle_gamma   90.00000000
_symmetry_Int_Tables_number   1
_chemical_formula_structural   Ba4Sn3O10
_chemical_formula_sum   'Ba16 Sn12 O40'
_cell_volume   1160.38233371
_cell_formula_units_Z   4
loop_
 _symmetry_equiv_pos_site_id
 _symmetry_equiv_pos_as_xyz
  1  'x, y, z'
loop_
 _atom_site_type_symbol
 _atom_site_label
 _atom_site_symmetry_multiplicity
 _atom_site_fract_x
 _atom_site_fract_y
 _atom_site_fract_z
 _atom_site_occupancy
  Ba  Ba0  1  0.00000000  0.76291000  0.89117200  1
  Ba  Ba1  1  0.00000000  0.96838900  0.64332200  1
  Ba  Ba2  1  0.00000000  0.53161100  0.14332200  1
  Ba  Ba3  1  0.00000000  0.73709000  0.39117200  1
  Ba  Ba4  1  0.50000000  0.53161100  0.35667800  1
  Ba  Ba5  1  0.50000000  0.76291000  0.60882800  1
  Ba  Ba6  1  0.50000000  0.96838900  0.85667800  1
  Ba  Ba7  1  0.50000000  0.73709000  0.10882800  1
  Ba  Ba8  1  0.50000000  0.26291000  0.89117200  1
  Ba  Ba9  1  0.50000000  0.46838900  0.64332200  1
  Ba  Ba10  1  0.50000000  0.03161100  0.14332200  1
  Ba  Ba11  1  0.50000000  0.23709000  0.39117200  1
  Ba  Ba12  1  0.00000000  0.03161100  0.35667800  1
  Ba  Ba13  1  0.00000000  0.26291000  0.60882800  1
  Ba  Ba14  1  0.00000000  0.46838900  0.85667800  1
  Ba  Ba15  1  0.00000000  0.23709000  0.10882800  1
  Sn  Sn16  1  0.00000000  0.50000000  0.50000000  1
  Sn  Sn17  1  0.00000000  0.63540000  0.65458200  1
  Sn  Sn18  1  0.00000000  0.86460000  0.15458200  1
  Sn  Sn19  1  0.50000000  0.50000000  0.00000000  1
  Sn  Sn20  1  0.50000000  0.86460000  0.34541800  1
  Sn  Sn21  1  0.50000000  0.63540000  0.84541800  1
  Sn  Sn22  1  0.50000000  0.00000000  0.50000000  1
  Sn  Sn23  1  0.50000000  0.13540000  0.65458200  1
  Sn  Sn24  1  0.50000000  0.36460000  0.15458200  1
  Sn  Sn25  1  0.00000000  0.00000000  0.00000000  1
  Sn  Sn26  1  0.00000000  0.36460000  0.34541800  1
  Sn  Sn27  1  0.00000000  0.13540000  0.84541800  1
  O  O28  1  0.72858450  0.88929850  0.46202800  1
  O  O29  1  0.75000000  0.88418700  0.25000000  1
  O  O30  1  0.77141550  0.88929850  0.03797200  1
  O  O31  1  0.00000000  0.78179200  0.65590200  1
  O  O32  1  0.00000000  0.71820800  0.15590200  1
  O  O33  1  0.00000000  0.53193900  0.35439100  1
  O  O34  1  0.00000000  0.96806100  0.85439100  1
  O  O35  1  0.22858450  0.61070150  0.53797200  1
  O  O36  1  0.22858450  0.88929850  0.03797200  1
  O  O37  1  0.25000000  0.61581300  0.75000000  1
  O  O38  1  0.25000000  0.88418700  0.25000000  1
  O  O39  1  0.27141550  0.61070150  0.96202800  1
  O  O40  1  0.27141550  0.88929850  0.46202800  1
  O  O41  1  0.50000000  0.78179200  0.84409800  1
  O  O42  1  0.50000000  0.71820800  0.34409800  1
  O  O43  1  0.50000000  0.96806100  0.64560900  1
  O  O44  1  0.50000000  0.53193900  0.14560900  1
  O  O45  1  0.72858450  0.61070150  0.96202800  1
  O  O46  1  0.75000000  0.61581300  0.75000000  1
  O  O47  1  0.77141550  0.61070150  0.53797200  1
  O  O48  1  0.22858450  0.38929850  0.46202800  1
  O  O49  1  0.25000000  0.38418700  0.25000000  1
  O  O50  1  0.27141550  0.38929850  0.03797200  1
  O  O51  1  0.50000000  0.28179200  0.65590200  1
  O  O52  1  0.50000000  0.21820800  0.15590200  1
  O  O53  1  0.50000000  0.03193900  0.35439100  1
  O  O54  1  0.50000000  0.46806100  0.85439100  1
  O  O55  1  0.72858450  0.11070150  0.53797200  1
  O  O56  1  0.72858450  0.38929850  0.03797200  1
  O  O57  1  0.75000000  0.11581300  0.75000000  1
  O  O58  1  0.75000000  0.38418700  0.25000000  1
  O  O59  1  0.77141550  0.11070150  0.96202800  1
  O  O60  1  0.77141550  0.38929850  0.46202800  1
  O  O61  1  0.00000000  0.28179200  0.84409800  1
  O  O62  1  0.00000000  0.21820800  0.34409800  1
  O  O63  1  0.00000000  0.46806100  0.64560900  1
  O  O64  1  0.00000000  0.03193900  0.14560900  1
  O  O65  1  0.22858450  0.11070150  0.96202800  1
  O  O66  1  0.25000000  0.11581300  0.75000000  1
  O  O67  1  0.27141550  0.11070150  0.53797200  1
