# generated using pymatgen
data_Sn2N2O
_symmetry_space_group_name_H-M   'P 1'
_cell_length_a   8.84696655
_cell_length_b   8.84754221
_cell_length_c   8.86224408
_cell_angle_alpha   109.54460848
_cell_angle_beta   109.38207058
_cell_angle_gamma   109.33917923
_symmetry_Int_Tables_number   1
_chemical_formula_structural   Sn2N2O
_chemical_formula_sum   'Sn16 N16 O8'
_cell_volume   534.96744135
_cell_formula_units_Z   8
loop_
 _symmetry_equiv_pos_site_id
 _symmetry_equiv_pos_as_xyz
  1  'x, y, z'
loop_
 _atom_site_type_symbol
 _atom_site_label
 _atom_site_symmetry_multiplicity
 _atom_site_fract_x
 _atom_site_fract_y
 _atom_site_fract_z
 _atom_site_occupancy
  Sn  Sn0  1  0.00962002  0.01026203  0.49028609  1
  Sn  Sn1  1  0.74850911  0.46683850  0.78898592  1
  Sn  Sn2  1  0.23319284  0.76321808  0.52182369  1
  Sn  Sn3  1  0.70521203  0.74316865  0.02929909  1
  Sn  Sn4  1  0.26175995  0.04531414  0.70955527  1
  Sn  Sn5  1  0.50184668  0.99776890  0.99520391  1
  Sn  Sn6  1  0.04426097  0.78779031  0.23838587  1
  Sn  Sn7  1  0.99519099  0.49293857  0.00930888  1
  Sn  Sn8  1  0.48893287  0.49653315  0.49790542  1
  Sn  Sn9  1  0.46383924  0.70954857  0.75517605  1
  Sn  Sn10  1  0.53501663  0.28466211  0.25628217  1
  Sn  Sn11  1  0.96445542  0.21700423  0.74792009  1
  Sn  Sn12  1  0.75043227  0.96758086  0.27903764  1
  Sn  Sn13  1  0.26326557  0.23857986  0.97046570  1
  Sn  Sn14  1  0.78985611  0.26524309  0.46376490  1
  Sn  Sn15  1  0.24856957  0.53369304  0.21562663  1
  N  N16  1  0.02540732  0.02669189  0.23778634  1
  N  N17  1  0.27155402  0.03508884  0.46233096  1
  N  N18  1  0.77222856  0.53895516  0.99069611  1
  N  N19  1  0.47189315  0.73678872  0.50121250  1
  N  N20  1  0.27166103  0.99964079  0.95473906  1
  N  N21  1  0.45507883  0.49594554  0.27014567  1
  N  N22  1  0.74005857  0.99770334  0.03486069  1
  N  N23  1  0.99861429  0.54526164  0.22875532  1
  N  N24  1  0.22741369  0.45326914  0.99736837  1
  N  N25  1  0.21925066  0.26979584  0.73354486  1
  N  N26  1  0.76300366  0.22039866  0.23587333  1
  N  N27  1  0.27221007  0.77217899  0.27384754  1
  N  N28  1  0.54338886  0.27387981  0.50710313  1
  N  N29  1  0.50228387  0.77137707  0.94984787  1
  N  N30  1  0.73352008  0.24739864  0.73497052  1
  N  N31  1  0.03771758  0.26762777  0.46528278  1
  O  O32  1  0.54969341  0.50387757  0.72781652  1
  O  O33  1  0.95820669  0.94411268  0.76985755  1
  O  O34  1  0.94735404  0.72408382  0.55019038  1
  O  O35  1  0.23084699  0.77272658  0.77469982  1
  O  O36  1  0.02597652  0.48224492  0.75045750  1
  O  O37  1  0.47881303  0.22970323  0.05163200  1
  O  O38  1  0.72951083  0.95447400  0.55727073  1
  O  O39  1  0.77035298  0.71663127  0.27068411  1
