# generated using pymatgen
data_Y2HfO5
_symmetry_space_group_name_H-M   'P 1'
_cell_length_a   3.77754000
_cell_length_b   7.54264100
_cell_length_c   15.77406400
_cell_angle_alpha   90.00000000
_cell_angle_beta   90.00000000
_cell_angle_gamma   90.00000000
_symmetry_Int_Tables_number   1
_chemical_formula_structural   Y2HfO5
_chemical_formula_sum   'Y8 Hf4 O20'
_cell_volume   449.44453891
_cell_formula_units_Z   4
loop_
 _symmetry_equiv_pos_site_id
 _symmetry_equiv_pos_as_xyz
  1  'x, y, z'
loop_
 _atom_site_type_symbol
 _atom_site_label
 _atom_site_symmetry_multiplicity
 _atom_site_fract_x
 _atom_site_fract_y
 _atom_site_fract_z
 _atom_site_occupancy
  Y  Y0  1  0.25000000  0.58709700  0.58997300  1
  Y  Y1  1  0.25000000  0.65034300  0.23768300  1
  Y  Y2  1  0.75000000  0.84965700  0.73768300  1
  Y  Y3  1  0.75000000  0.91290300  0.08997300  1
  Y  Y4  1  0.25000000  0.08709700  0.91002700  1
  Y  Y5  1  0.25000000  0.15034300  0.26231700  1
  Y  Y6  1  0.75000000  0.34965700  0.76231700  1
  Y  Y7  1  0.75000000  0.41290300  0.41002700  1
  Hf  Hf8  1  0.25000000  0.61870400  0.92733000  1
  Hf  Hf9  1  0.75000000  0.88129600  0.42733000  1
  Hf  Hf10  1  0.25000000  0.11870400  0.57267000  1
  Hf  Hf11  1  0.75000000  0.38129600  0.07267000  1
  O  O12  1  0.75000000  0.58474500  0.67843000  1
  O  O13  1  0.75000000  0.57855400  0.96127000  1
  O  O14  1  0.75000000  0.60970800  0.15142700  1
  O  O15  1  0.75000000  0.64716300  0.50220400  1
  O  O16  1  0.25000000  0.78621500  0.82701400  1
  O  O17  1  0.75000000  0.71378500  0.32701400  1
  O  O18  1  0.25000000  0.85283700  0.00220400  1
  O  O19  1  0.25000000  0.89029200  0.65142700  1
  O  O20  1  0.25000000  0.92144600  0.46127000  1
  O  O21  1  0.25000000  0.91525500  0.17843000  1
  O  O22  1  0.75000000  0.08474500  0.82157000  1
  O  O23  1  0.75000000  0.07855400  0.53873000  1
  O  O24  1  0.75000000  0.10970800  0.34857300  1
  O  O25  1  0.75000000  0.14716300  0.99779600  1
  O  O26  1  0.25000000  0.28621500  0.67298600  1
  O  O27  1  0.75000000  0.21378500  0.17298600  1
  O  O28  1  0.25000000  0.35283700  0.49779600  1
  O  O29  1  0.25000000  0.39029200  0.84857300  1
  O  O30  1  0.25000000  0.42144600  0.03873000  1
  O  O31  1  0.25000000  0.41525500  0.32157000  1
