# generated using pymatgen
data_Li4CuSi2O7
_symmetry_space_group_name_H-M   'P 1'
_cell_length_a   9.60605800
_cell_length_b   4.50925600
_cell_length_c   6.78839003
_cell_angle_alpha   90.00000000
_cell_angle_beta   100.11724327
_cell_angle_gamma   90.00000000
_symmetry_Int_Tables_number   1
_chemical_formula_structural   Li4CuSi2O7
_chemical_formula_sum   'Li8 Cu2 Si4 O14'
_cell_volume   289.47476154
_cell_formula_units_Z   2
loop_
 _symmetry_equiv_pos_site_id
 _symmetry_equiv_pos_as_xyz
  1  'x, y, z'
loop_
 _atom_site_type_symbol
 _atom_site_label
 _atom_site_symmetry_multiplicity
 _atom_site_fract_x
 _atom_site_fract_y
 _atom_site_fract_z
 _atom_site_occupancy
  Li  Li0  1  0.85350550  0.01381050  0.06512100  1
  Li  Li1  1  0.78825000  0.50800200  0.35531900  1
  Li  Li2  1  0.71175000  0.00800200  0.64468100  1
  Li  Li3  1  0.64649450  0.51381050  0.93487900  1
  Li  Li4  1  0.35350550  0.51381050  0.06512100  1
  Li  Li5  1  0.28825000  0.00800200  0.35531900  1
  Li  Li6  1  0.21175000  0.50800200  0.64468100  1
  Li  Li7  1  0.14649450  0.01381050  0.93487900  1
  Cu  Cu8  1  0.00000000  0.00185400  0.50000000  1
  Cu  Cu9  1  0.50000000  0.50185400  0.50000000  1
  Si  Si10  1  0.92443150  0.49005650  0.78982800  1
  Si  Si11  1  0.57556850  0.99005650  0.21017200  1
  Si  Si12  1  0.42443150  0.99005650  0.78982800  1
  Si  Si13  1  0.07556850  0.49005650  0.21017200  1
  O  O14  1  0.95032600  0.28193200  0.27502600  1
  O  O15  1  0.87035700  0.73264900  0.61266100  1
  O  O16  1  0.79533300  0.29483200  0.84477300  1
  O  O17  1  0.70466700  0.79483200  0.15522700  1
  O  O18  1  0.62964300  0.23264900  0.38733900  1
  O  O19  1  0.54967400  0.78193200  0.72497400  1
  O  O20  1  0.00000000  0.68253700  0.00000000  1
  O  O21  1  0.45032600  0.78193200  0.27502600  1
  O  O22  1  0.37035700  0.23264900  0.61266100  1
  O  O23  1  0.29533300  0.79483200  0.84477300  1
  O  O24  1  0.20466700  0.29483200  0.15522700  1
  O  O25  1  0.12964300  0.73264900  0.38733900  1
  O  O26  1  0.04967400  0.28193200  0.72497400  1
  O  O27  1  0.50000000  0.18253700  0.00000000  1
