# generated using pymatgen
data_Fe4OF7
_symmetry_space_group_name_H-M   'P 1'
_cell_length_a   9.56681800
_cell_length_b   6.56825200
_cell_length_c   4.79182071
_cell_angle_alpha   90.00000000
_cell_angle_beta   91.49344242
_cell_angle_gamma   90.00000000
_symmetry_Int_Tables_number   1
_chemical_formula_structural   Fe4OF7
_chemical_formula_sum   'Fe8 O2 F14'
_cell_volume   301.00265790
_cell_formula_units_Z   2
loop_
 _symmetry_equiv_pos_site_id
 _symmetry_equiv_pos_as_xyz
  1  'x, y, z'
loop_
 _atom_site_type_symbol
 _atom_site_label
 _atom_site_symmetry_multiplicity
 _atom_site_fract_x
 _atom_site_fract_y
 _atom_site_fract_z
 _atom_site_occupancy
  Fe  Fe0  1  0.48740900  0.00000000  0.47890700  1
  Fe  Fe1  1  0.00178900  0.00000000  0.49824700  1
  Fe  Fe2  1  0.25440900  0.24414000  0.00907600  1
  Fe  Fe3  1  0.25440900  0.75586000  0.00907600  1
  Fe  Fe4  1  0.98740900  0.50000000  0.47890700  1
  Fe  Fe5  1  0.50178900  0.50000000  0.49824700  1
  Fe  Fe6  1  0.75440900  0.74414000  0.00907600  1
  Fe  Fe7  1  0.75440900  0.25586000  0.00907600  1
  O  O8  1  0.34979500  0.00000000  0.20779000  1
  O  O9  1  0.84979500  0.50000000  0.20779000  1
  F  F10  1  0.85243400  0.00000000  0.19784000  1
  F  F11  1  0.59812350  0.23606750  0.30859100  1
  F  F12  1  0.59812350  0.76393250  0.30859100  1
  F  F13  1  0.40447200  0.75852200  0.69557300  1
  F  F14  1  0.40447200  0.24147800  0.69557300  1
  F  F15  1  0.14720500  0.00000000  0.80131000  1
  F  F16  1  0.64735600  0.00000000  0.78942500  1
  F  F17  1  0.35243400  0.50000000  0.19784000  1
  F  F18  1  0.09812350  0.73606750  0.30859100  1
  F  F19  1  0.09812350  0.26393250  0.30859100  1
  F  F20  1  0.90447200  0.25852200  0.69557300  1
  F  F21  1  0.90447200  0.74147800  0.69557300  1
  F  F22  1  0.64720500  0.50000000  0.80131000  1
  F  F23  1  0.14735600  0.50000000  0.78942500  1
