# generated using pymatgen
data_SrSc2O4
_symmetry_space_group_name_H-M   'P 1'
_cell_length_a   9.75824800
_cell_length_b   5.78215400
_cell_length_c   20.51194843
_cell_angle_alpha   90.00000000
_cell_angle_beta   90.25705040
_cell_angle_gamma   90.00000000
_symmetry_Int_Tables_number   1
_chemical_formula_structural   SrSc2O4
_chemical_formula_sum   'Sr12 Sc24 O48'
_cell_volume   1157.34822748
_cell_formula_units_Z   12
loop_
 _symmetry_equiv_pos_site_id
 _symmetry_equiv_pos_as_xyz
  1  'x, y, z'
loop_
 _atom_site_type_symbol
 _atom_site_label
 _atom_site_symmetry_multiplicity
 _atom_site_fract_x
 _atom_site_fract_y
 _atom_site_fract_z
 _atom_site_occupancy
  Sr  Sr0  1  0.33495450  0.88978550  0.85395800  1
  Sr  Sr1  1  0.33495450  0.11021450  0.35395800  1
  Sr  Sr2  1  0.50000000  0.39046700  0.75000000  1
  Sr  Sr3  1  0.50000000  0.60953300  0.25000000  1
  Sr  Sr4  1  0.66504550  0.11021450  0.14604200  1
  Sr  Sr5  1  0.66504550  0.88978550  0.64604200  1
  Sr  Sr6  1  0.83495450  0.38978550  0.85395800  1
  Sr  Sr7  1  0.83495450  0.61021450  0.35395800  1
  Sr  Sr8  1  0.00000000  0.89046700  0.75000000  1
  Sr  Sr9  1  0.00000000  0.10953300  0.25000000  1
  Sr  Sr10  1  0.16504550  0.61021450  0.14604200  1
  Sr  Sr11  1  0.16504550  0.38978550  0.64604200  1
  Sc  Sc12  1  0.33130950  0.88816750  0.69429100  1
  Sc  Sc13  1  0.33130950  0.11183250  0.19429100  1
  Sc  Sc14  1  0.33643450  0.87944950  0.55222600  1
  Sc  Sc15  1  0.33643450  0.12055050  0.05222600  1
  Sc  Sc16  1  0.49702100  0.38185500  0.57111700  1
  Sc  Sc17  1  0.49702100  0.61814500  0.07111700  1
  Sc  Sc18  1  0.50297900  0.38185500  0.92888300  1
  Sc  Sc19  1  0.50297900  0.61814500  0.42888300  1
  Sc  Sc20  1  0.66356550  0.87944950  0.94777400  1
  Sc  Sc21  1  0.66356550  0.12055050  0.44777400  1
  Sc  Sc22  1  0.66869050  0.88816750  0.80570900  1
  Sc  Sc23  1  0.66869050  0.11183250  0.30570900  1
  Sc  Sc24  1  0.83130950  0.38816750  0.69429100  1
  Sc  Sc25  1  0.83130950  0.61183250  0.19429100  1
  Sc  Sc26  1  0.83643450  0.37944950  0.55222600  1
  Sc  Sc27  1  0.83643450  0.62055050  0.05222600  1
  Sc  Sc28  1  0.99702100  0.88185500  0.57111700  1
  Sc  Sc29  1  0.99702100  0.11814500  0.07111700  1
  Sc  Sc30  1  0.00297900  0.88185500  0.92888300  1
  Sc  Sc31  1  0.00297900  0.11814500  0.42888300  1
  Sc  Sc32  1  0.16356550  0.37944950  0.94777400  1
  Sc  Sc33  1  0.16356550  0.62055050  0.44777400  1
  Sc  Sc34  1  0.16869050  0.38816750  0.80570900  1
  Sc  Sc35  1  0.16869050  0.61183250  0.30570900  1
  O  O36  1  0.15169900  0.94705700  0.49687000  1
  O  O37  1  0.15169900  0.05294300  0.99687000  1
  O  O38  1  0.66879500  0.31369600  0.62558700  1
  O  O39  1  0.66879500  0.68630400  0.12558700  1
  O  O40  1  0.21682750  0.88748350  0.24809700  1
  O  O41  1  0.21682750  0.11251650  0.74809700  1
  O  O42  1  0.37462950  0.15408350  0.61942300  1
  O  O43  1  0.37462950  0.84591650  0.11942300  1
  O  O44  1  0.44755550  0.67219350  0.62473300  1
  O  O45  1  0.44755550  0.32780650  0.12473300  1
  O  O46  1  0.50000000  0.96320700  0.75000000  1
  O  O47  1  0.50000000  0.00000000  0.00000000  1
  O  O48  1  0.50000000  0.00000000  0.50000000  1
  O  O49  1  0.50000000  0.03679300  0.25000000  1
  O  O50  1  0.55244450  0.67219350  0.87526700  1
  O  O51  1  0.55244450  0.32780650  0.37526700  1
  O  O52  1  0.62537050  0.15408350  0.88057700  1
  O  O53  1  0.62537050  0.84591650  0.38057700  1
  O  O54  1  0.78317250  0.11251650  0.75190300  1
  O  O55  1  0.78317250  0.88748350  0.25190300  1
  O  O56  1  0.33120500  0.31369600  0.87441300  1
  O  O57  1  0.33120500  0.68630400  0.37441300  1
  O  O58  1  0.84830100  0.05294300  0.50313000  1
  O  O59  1  0.84830100  0.94705700  0.00313000  1
  O  O60  1  0.65169900  0.44705700  0.49687000  1
  O  O61  1  0.65169900  0.55294300  0.99687000  1
  O  O62  1  0.16879500  0.81369600  0.62558700  1
  O  O63  1  0.16879500  0.18630400  0.12558700  1
  O  O64  1  0.71682750  0.38748350  0.24809700  1
  O  O65  1  0.71682750  0.61251650  0.74809700  1
  O  O66  1  0.87462950  0.65408350  0.61942300  1
  O  O67  1  0.87462950  0.34591650  0.11942300  1
  O  O68  1  0.94755550  0.17219350  0.62473300  1
  O  O69  1  0.94755550  0.82780650  0.12473300  1
  O  O70  1  0.00000000  0.46320700  0.75000000  1
  O  O71  1  0.00000000  0.50000000  0.00000000  1
  O  O72  1  0.00000000  0.50000000  0.50000000  1
  O  O73  1  0.00000000  0.53679300  0.25000000  1
  O  O74  1  0.05244450  0.17219350  0.87526700  1
  O  O75  1  0.05244450  0.82780650  0.37526700  1
  O  O76  1  0.12537050  0.65408350  0.88057700  1
  O  O77  1  0.12537050  0.34591650  0.38057700  1
  O  O78  1  0.28317250  0.61251650  0.75190300  1
  O  O79  1  0.28317250  0.38748350  0.25190300  1
  O  O80  1  0.83120500  0.81369600  0.87441300  1
  O  O81  1  0.83120500  0.18630400  0.37441300  1
  O  O82  1  0.34830100  0.55294300  0.50313000  1
  O  O83  1  0.34830100  0.44705700  0.00313000  1
