# generated using pymatgen
data_NaLiP2(H4O5)2
_symmetry_space_group_name_H-M   'P 1'
_cell_length_a   10.58571207
_cell_length_b   10.58571207
_cell_length_c   42.01171648
_cell_angle_alpha   90.00000000
_cell_angle_beta   90.00000000
_cell_angle_gamma   120.00000000
_symmetry_Int_Tables_number   1
_chemical_formula_structural   NaLiP2(H4O5)2
_chemical_formula_sum   'Na18 Li18 P36 H144 O180'
_cell_volume   4077.00469949
_cell_formula_units_Z   18
loop_
 _symmetry_equiv_pos_site_id
 _symmetry_equiv_pos_as_xyz
  1  'x, y, z'
loop_
 _atom_site_type_symbol
 _atom_site_label
 _atom_site_symmetry_multiplicity
 _atom_site_fract_x
 _atom_site_fract_y
 _atom_site_fract_z
 _atom_site_occupancy
  Na  Na0  1  0.33333333  0.66666667  0.29909967  1
  Na  Na1  1  0.00000000  0.00000000  0.13243300  1
  Na  Na2  1  0.33333333  0.66666667  0.03423367  1
  Na  Na3  1  0.66666667  0.33333333  0.20090033  1
  Na  Na4  1  0.66666667  0.33333333  0.08333333  1
  Na  Na5  1  0.00000000  0.00000000  0.25000000  1
  Na  Na6  1  0.00000000  0.00000000  0.63243300  1
  Na  Na7  1  0.66666667  0.33333333  0.46576633  1
  Na  Na8  1  0.00000000  0.00000000  0.36756700  1
  Na  Na9  1  0.33333333  0.66666667  0.53423367  1
  Na  Na10  1  0.33333333  0.66666667  0.41666667  1
  Na  Na11  1  0.66666667  0.33333333  0.58333333  1
  Na  Na12  1  0.66666667  0.33333333  0.96576633  1
  Na  Na13  1  0.33333333  0.66666667  0.79909967  1
  Na  Na14  1  0.66666667  0.33333333  0.70090033  1
  Na  Na15  1  0.00000000  0.00000000  0.86756700  1
  Na  Na16  1  0.00000000  0.00000000  0.75000000  1
  Na  Na17  1  0.33333333  0.66666667  0.91666667  1
  Li  Li18  1  0.66666667  0.83896833  0.08333333  1
  Li  Li19  1  0.17230167  0.33333333  0.08333333  1
  Li  Li20  1  0.16103167  0.82769833  0.08333333  1
  Li  Li21  1  0.49436500  0.00000000  0.25000000  1
  Li  Li22  1  0.50563500  0.50563500  0.25000000  1
  Li  Li23  1  0.00000000  0.49436500  0.25000000  1
  Li  Li24  1  0.33333333  0.17230167  0.41666667  1
  Li  Li25  1  0.83896833  0.66666667  0.41666667  1
  Li  Li26  1  0.82769833  0.16103167  0.41666667  1
  Li  Li27  1  0.16103167  0.33333333  0.58333333  1
  Li  Li28  1  0.17230167  0.83896833  0.58333333  1
  Li  Li29  1  0.66666667  0.82769833  0.58333333  1
  Li  Li30  1  0.00000000  0.50563500  0.75000000  1
  Li  Li31  1  0.50563500  0.00000000  0.75000000  1
  Li  Li32  1  0.49436500  0.49436500  0.75000000  1
  Li  Li33  1  0.82769833  0.66666667  0.91666667  1
  Li  Li34  1  0.83896833  0.17230167  0.91666667  1
  Li  Li35  1  0.33333333  0.16103167  0.91666667  1
  P  P36  1  0.55821467  0.52164833  0.32009533  1
  P  P37  1  0.96343367  0.44178533  0.32009533  1
  P  P38  1  0.47835167  0.03656633  0.32009533  1
  P  P39  1  0.14501833  0.77511867  0.15342867  1
  P  P40  1  0.63010033  0.85498167  0.15342867  1
  P  P41  1  0.22488133  0.36989967  0.15342867  1
  P  P42  1  0.10845200  0.81168500  0.01323800  1
  P  P43  1  0.70323300  0.89154800  0.01323800  1
  P  P44  1  0.18831500  0.29676700  0.01323800  1
  P  P45  1  0.52164833  0.55821467  0.17990467  1
  P  P46  1  0.03656633  0.47835167  0.17990467  1
  P  P47  1  0.44178533  0.96343367  0.17990467  1
  P  P48  1  0.22488133  0.85498167  0.65342867  1
  P  P49  1  0.63010033  0.77511867  0.65342867  1
  P  P50  1  0.14501833  0.36989967  0.65342867  1
  P  P51  1  0.81168500  0.10845200  0.48676200  1
  P  P52  1  0.29676700  0.18831500  0.48676200  1
  P  P53  1  0.89154800  0.70323300  0.48676200  1
  P  P54  1  0.77511867  0.14501833  0.34657133  1
  P  P55  1  0.36989967  0.22488133  0.34657133  1
  P  P56  1  0.85498167  0.63010033  0.34657133  1
  P  P57  1  0.18831500  0.89154800  0.51323800  1
  P  P58  1  0.70323300  0.81168500  0.51323800  1
  P  P59  1  0.10845200  0.29676700  0.51323800  1
  P  P60  1  0.89154800  0.18831500  0.98676200  1
  P  P61  1  0.29676700  0.10845200  0.98676200  1
  P  P62  1  0.81168500  0.70323300  0.98676200  1
  P  P63  1  0.47835167  0.44178533  0.82009533  1
  P  P64  1  0.96343367  0.52164833  0.82009533  1
  P  P65  1  0.55821467  0.03656633  0.82009533  1
  P  P66  1  0.44178533  0.47835167  0.67990467  1
  P  P67  1  0.03656633  0.55821467  0.67990467  1
  P  P68  1  0.52164833  0.96343367  0.67990467  1
  P  P69  1  0.85498167  0.22488133  0.84657133  1
  P  P70  1  0.36989967  0.14501833  0.84657133  1
  P  P71  1  0.77511867  0.63010033  0.84657133  1
  H  H72  1  0.92650700  0.10816000  0.07273000  1
  H  H73  1  0.18165300  0.07349300  0.07273000  1
  H  H74  1  0.89184000  0.81834700  0.07273000  1
  H  H75  1  0.22517333  0.74015967  0.23939667  1
  H  H76  1  0.51498633  0.77482667  0.23939667  1
  H  H77  1  0.25984033  0.48501367  0.23939667  1
  H  H78  1  0.74015967  0.22517333  0.26060333  1
  H  H79  1  0.48501367  0.25984033  0.26060333  1
  H  H80  1  0.77482667  0.51498633  0.26060333  1
  H  H81  1  0.44149333  0.59317367  0.09393667  1
  H  H82  1  0.15168033  0.55850667  0.09393667  1
  H  H83  1  0.40682633  0.84831967  0.09393667  1
  H  H84  1  0.75800367  0.14049433  0.23190033  1
  H  H85  1  0.38249067  0.24199633  0.23190033  1
  H  H86  1  0.85950567  0.61750933  0.23190033  1
  H  H87  1  0.52617233  0.57532967  0.06523367  1
  H  H88  1  0.04915733  0.47382767  0.06523367  1
  H  H89  1  0.42467033  0.95084267  0.06523367  1
  H  H90  1  0.90866300  0.19283900  0.10143300  1
  H  H91  1  0.28417600  0.09133700  0.10143300  1
  H  H92  1  0.80716100  0.71582400  0.10143300  1
  H  H93  1  0.14049433  0.75800367  0.26809967  1
  H  H94  1  0.61750933  0.85950567  0.26809967  1
  H  H95  1  0.24199633  0.38249067  0.26809967  1
  H  H96  1  0.04401533  0.85922367  0.30138367  1
  H  H97  1  0.81520833  0.95598467  0.30138367  1
  H  H98  1  0.14077633  0.18479167  0.30138367  1
  H  H99  1  0.80744300  0.28931800  0.13471700  1
  H  H100  1  0.48187500  0.19255700  0.13471700  1
  H  H101  1  0.71068200  0.51812500  0.13471700  1
  H  H102  1  0.62265133  0.47410967  0.03194967  1
  H  H103  1  0.85145833  0.37734867  0.03194967  1
  H  H104  1  0.52589033  0.14854167  0.03194967  1
  H  H105  1  0.85922367  0.04401533  0.19861633  1
  H  H106  1  0.18479167  0.14077633  0.19861633  1
  H  H107  1  0.95598467  0.81520833  0.19861633  1
  H  H108  1  0.70024333  0.12795367  0.12257667  1
  H  H109  1  0.42771033  0.29975667  0.12257667  1
  H  H110  1  0.87204633  0.57228967  0.12257667  1
  H  H111  1  0.20537967  0.96642333  0.28924333  1
  H  H112  1  0.76104367  0.79462033  0.28924333  1
  H  H113  1  0.03357667  0.23895633  0.28924333  1
  H  H114  1  0.96642333  0.20537967  0.21075667  1
  H  H115  1  0.23895633  0.03357667  0.21075667  1
  H  H116  1  0.79462033  0.76104367  0.21075667  1
  H  H117  1  0.46128700  0.36691000  0.04409000  1
  H  H118  1  0.90562300  0.53871300  0.04409000  1
  H  H119  1  0.63309000  0.09437700  0.04409000  1
  H  H120  1  0.59317367  0.44149333  0.40606333  1
  H  H121  1  0.84831967  0.40682633  0.40606333  1
  H  H122  1  0.55850667  0.15168033  0.40606333  1
  H  H123  1  0.89184000  0.07349300  0.57273000  1
  H  H124  1  0.18165300  0.10816000  0.57273000  1
  H  H125  1  0.92650700  0.81834700  0.57273000  1
  H  H126  1  0.40682633  0.55850667  0.59393667  1
  H  H127  1  0.15168033  0.59317367  0.59393667  1
  H  H128  1  0.44149333  0.84831967  0.59393667  1
  H  H129  1  0.10816000  0.92650700  0.42727000  1
  H  H130  1  0.81834700  0.89184000  0.42727000  1
  H  H131  1  0.07349300  0.18165300  0.42727000  1
  H  H132  1  0.42467033  0.47382767  0.56523367  1
  H  H133  1  0.04915733  0.57532967  0.56523367  1
  H  H134  1  0.52617233  0.95084267  0.56523367  1
  H  H135  1  0.19283900  0.90866300  0.39856700  1
  H  H136  1  0.71582400  0.80716100  0.39856700  1
  H  H137  1  0.09133700  0.28417600  0.39856700  1
  H  H138  1  0.57532967  0.52617233  0.43476633  1
  H  H139  1  0.95084267  0.42467033  0.43476633  1
  H  H140  1  0.47382767  0.04915733  0.43476633  1
  H  H141  1  0.80716100  0.09133700  0.60143300  1
  H  H142  1  0.28417600  0.19283900  0.60143300  1
  H  H143  1  0.90866300  0.71582400  0.60143300  1
  H  H144  1  0.71068200  0.19255700  0.63471700  1
  H  H145  1  0.48187500  0.28931800  0.63471700  1
  H  H146  1  0.80744300  0.51812500  0.63471700  1
  H  H147  1  0.47410967  0.62265133  0.46805033  1
  H  H148  1  0.14854167  0.52589033  0.46805033  1
  H  H149  1  0.37734867  0.85145833  0.46805033  1
  H  H150  1  0.28931800  0.80744300  0.36528300  1
  H  H151  1  0.51812500  0.71068200  0.36528300  1
  H  H152  1  0.19255700  0.48187500  0.36528300  1
  H  H153  1  0.52589033  0.37734867  0.53194967  1
  H  H154  1  0.85145833  0.47410967  0.53194967  1
  H  H155  1  0.62265133  0.14854167  0.53194967  1
  H  H156  1  0.36691000  0.46128700  0.45591000  1
  H  H157  1  0.09437700  0.63309000  0.45591000  1
  H  H158  1  0.53871300  0.90562300  0.45591000  1
  H  H159  1  0.87204633  0.29975667  0.62257667  1
  H  H160  1  0.42771033  0.12795367  0.62257667  1
  H  H161  1  0.70024333  0.57228967  0.62257667  1
  H  H162  1  0.63309000  0.53871300  0.54409000  1
  H  H163  1  0.90562300  0.36691000  0.54409000  1
  H  H164  1  0.46128700  0.09437700  0.54409000  1
  H  H165  1  0.12795367  0.70024333  0.37742333  1
  H  H166  1  0.57228967  0.87204633  0.37742333  1
  H  H167  1  0.29975667  0.42771033  0.37742333  1
  H  H168  1  0.25984033  0.77482667  0.73939667  1
  H  H169  1  0.51498633  0.74015967  0.73939667  1
  H  H170  1  0.22517333  0.48501367  0.73939667  1
  H  H171  1  0.55850667  0.40682633  0.90606333  1
  H  H172  1  0.84831967  0.44149333  0.90606333  1
  H  H173  1  0.59317367  0.15168033  0.90606333  1
  H  H174  1  0.07349300  0.89184000  0.92727000  1
  H  H175  1  0.81834700  0.92650700  0.92727000  1
  H  H176  1  0.10816000  0.18165300  0.92727000  1
  H  H177  1  0.77482667  0.25984033  0.76060333  1
  H  H178  1  0.48501367  0.22517333  0.76060333  1
  H  H179  1  0.74015967  0.51498633  0.76060333  1
  H  H180  1  0.09133700  0.80716100  0.89856700  1
  H  H181  1  0.71582400  0.90866300  0.89856700  1
  H  H182  1  0.19283900  0.28417600  0.89856700  1
  H  H183  1  0.85950567  0.24199633  0.73190033  1
  H  H184  1  0.38249067  0.14049433  0.73190033  1
  H  H185  1  0.75800367  0.61750933  0.73190033  1
  H  H186  1  0.24199633  0.85950567  0.76809967  1
  H  H187  1  0.61750933  0.75800367  0.76809967  1
  H  H188  1  0.14049433  0.38249067  0.76809967  1
  H  H189  1  0.47382767  0.42467033  0.93476633  1
  H  H190  1  0.95084267  0.52617233  0.93476633  1
  H  H191  1  0.57532967  0.04915733  0.93476633  1
  H  H192  1  0.37734867  0.52589033  0.96805033  1
  H  H193  1  0.14854167  0.62265133  0.96805033  1
  H  H194  1  0.47410967  0.85145833  0.96805033  1
  H  H195  1  0.14077633  0.95598467  0.80138367  1
  H  H196  1  0.81520833  0.85922367  0.80138367  1
  H  H197  1  0.04401533  0.18479167  0.80138367  1
  H  H198  1  0.95598467  0.14077633  0.69861633  1
  H  H199  1  0.18479167  0.04401533  0.69861633  1
  H  H200  1  0.85922367  0.81520833  0.69861633  1
  H  H201  1  0.19255700  0.71068200  0.86528300  1
  H  H202  1  0.51812500  0.80744300  0.86528300  1
  H  H203  1  0.28931800  0.48187500  0.86528300  1
  H  H204  1  0.03357667  0.79462033  0.78924333  1
  H  H205  1  0.76104367  0.96642333  0.78924333  1
  H  H206  1  0.20537967  0.23895633  0.78924333  1
  H  H207  1  0.53871300  0.63309000  0.95591000  1
  H  H208  1  0.09437700  0.46128700  0.95591000  1
  H  H209  1  0.36691000  0.90562300  0.95591000  1
  H  H210  1  0.29975667  0.87204633  0.87742333  1
  H  H211  1  0.57228967  0.70024333  0.87742333  1
  H  H212  1  0.12795367  0.42771033  0.87742333  1
  H  H213  1  0.79462033  0.03357667  0.71075667  1
  H  H214  1  0.23895633  0.20537967  0.71075667  1
  H  H215  1  0.96642333  0.76104367  0.71075667  1
  O  O216  1  0.03668667  0.76741333  0.04541833  1
  O  O217  1  0.73072667  0.96331333  0.04541833  1
  O  O218  1  0.23258667  0.26927333  0.04541833  1
  O  O219  1  0.56592000  0.62998000  0.21208500  1
  O  O220  1  0.06406000  0.43408000  0.21208500  1
  O  O221  1  0.37002000  0.93594000  0.21208500  1
  O  O222  1  0.62998000  0.56592000  0.28791500  1
  O  O223  1  0.93594000  0.37002000  0.28791500  1
  O  O224  1  0.43408000  0.06406000  0.28791500  1
  O  O225  1  0.10074667  0.70335333  0.12124833  1
  O  O226  1  0.60260667  0.89925333  0.12124833  1
  O  O227  1  0.29664667  0.39739333  0.12124833  1
  O  O228  1  0.53726300  0.88207900  0.18064000  1
  O  O229  1  0.34481600  0.46273700  0.18064000  1
  O  O230  1  0.11792100  0.65518400  0.18064000  1
  O  O231  1  0.78458767  0.79607033  0.01397333  1
  O  O232  1  0.01148267  0.21541233  0.01397333  1
  O  O233  1  0.20392967  0.98851733  0.01397333  1
  O  O234  1  0.12940367  0.45125433  0.15269333  1
  O  O235  1  0.32185067  0.87059633  0.15269333  1
  O  O236  1  0.54874567  0.67814933  0.15269333  1
  O  O237  1  0.88207900  0.53726300  0.31936000  1
  O  O238  1  0.65518400  0.11792100  0.31936000  1
  O  O239  1  0.46273700  0.34481600  0.31936000  1
  O  O240  1  0.11746200  0.53325300  0.33171600  1
  O  O241  1  0.41579100  0.88253800  0.33171600  1
  O  O242  1  0.46674700  0.58420900  0.33171600  1
  O  O243  1  0.13341367  0.21587133  0.16504933  1
  O  O244  1  0.08245767  0.86658633  0.16504933  1
  O  O245  1  0.78412867  0.91754233  0.16504933  1
  O  O246  1  0.54920467  0.80008033  0.00161733  1
  O  O247  1  0.25087567  0.45079533  0.00161733  1
  O  O248  1  0.19991967  0.74912433  0.00161733  1
  O  O249  1  0.53325300  0.11746200  0.16828400  1
  O  O250  1  0.58420900  0.46674700  0.16828400  1
  O  O251  1  0.88253800  0.41579100  0.16828400  1
  O  O252  1  0.48055300  0.30962400  0.24129600  1
  O  O253  1  0.82907100  0.51944700  0.24129600  1
  O  O254  1  0.69037600  0.17092900  0.24129600  1
  O  O255  1  0.35704267  0.85278033  0.07462933  1
  O  O256  1  0.49573767  0.64295733  0.07462933  1
  O  O257  1  0.14721967  0.50426233  0.07462933  1
  O  O258  1  0.18611367  0.02370933  0.09203733  1
  O  O259  1  0.83759567  0.81388633  0.09203733  1
  O  O260  1  0.97629067  0.16240433  0.09203733  1
  O  O261  1  0.30962400  0.48055300  0.25870400  1
  O  O262  1  0.17092900  0.69037600  0.25870400  1
  O  O263  1  0.51944700  0.82907100  0.25870400  1
  O  O264  1  0.21531700  0.10777400  0.21779000  1
  O  O265  1  0.89245700  0.78468300  0.21779000  1
  O  O266  1  0.89222600  0.10754300  0.21779000  1
  O  O267  1  0.55889267  0.11801633  0.05112333  1
  O  O268  1  0.55912367  0.44110733  0.05112333  1
  O  O269  1  0.88198367  0.44087633  0.05112333  1
  O  O270  1  0.45134967  0.22555933  0.11554333  1
  O  O271  1  0.77420967  0.54865033  0.11554333  1
  O  O272  1  0.77444067  0.22579033  0.11554333  1
  O  O273  1  0.10777400  0.21531700  0.28221000  1
  O  O274  1  0.10754300  0.89222600  0.28221000  1
  O  O275  1  0.78468300  0.89245700  0.28221000  1
  O  O276  1  0.70335333  0.10074667  0.37875167  1
  O  O277  1  0.39739333  0.29664667  0.37875167  1
  O  O278  1  0.89925333  0.60260667  0.37875167  1
  O  O279  1  0.23258667  0.96331333  0.54541833  1
  O  O280  1  0.73072667  0.76741333  0.54541833  1
  O  O281  1  0.03668667  0.26927333  0.54541833  1
  O  O282  1  0.29664667  0.89925333  0.62124833  1
  O  O283  1  0.60260667  0.70335333  0.62124833  1
  O  O284  1  0.10074667  0.39739333  0.62124833  1
  O  O285  1  0.76741333  0.03668667  0.45458167  1
  O  O286  1  0.26927333  0.23258667  0.45458167  1
  O  O287  1  0.96331333  0.73072667  0.45458167  1
  O  O288  1  0.20392967  0.21541233  0.51397333  1
  O  O289  1  0.01148267  0.79607033  0.51397333  1
  O  O290  1  0.78458767  0.98851733  0.51397333  1
  O  O291  1  0.45125433  0.12940367  0.34730667  1
  O  O292  1  0.67814933  0.54874567  0.34730667  1
  O  O293  1  0.87059633  0.32185067  0.34730667  1
  O  O294  1  0.79607033  0.78458767  0.48602667  1
  O  O295  1  0.98851733  0.20392967  0.48602667  1
  O  O296  1  0.21541233  0.01148267  0.48602667  1
  O  O297  1  0.54874567  0.87059633  0.65269333  1
  O  O298  1  0.32185067  0.45125433  0.65269333  1
  O  O299  1  0.12940367  0.67814933  0.65269333  1
  O  O300  1  0.78412867  0.86658633  0.66504933  1
  O  O301  1  0.08245767  0.21587133  0.66504933  1
  O  O302  1  0.13341367  0.91754233  0.66504933  1
  O  O303  1  0.80008033  0.54920467  0.49838267  1
  O  O304  1  0.74912433  0.19991967  0.49838267  1
  O  O305  1  0.45079533  0.25087567  0.49838267  1
  O  O306  1  0.21587133  0.13341367  0.33495067  1
  O  O307  1  0.91754233  0.78412867  0.33495067  1
  O  O308  1  0.86658633  0.08245767  0.33495067  1
  O  O309  1  0.19991967  0.45079533  0.50161733  1
  O  O310  1  0.25087567  0.80008033  0.50161733  1
  O  O311  1  0.54920467  0.74912433  0.50161733  1
  O  O312  1  0.14721967  0.64295733  0.57462933  1
  O  O313  1  0.49573767  0.85278033  0.57462933  1
  O  O314  1  0.35704267  0.50426233  0.57462933  1
  O  O315  1  0.02370933  0.18611367  0.40796267  1
  O  O316  1  0.16240433  0.97629067  0.40796267  1
  O  O317  1  0.81388633  0.83759567  0.40796267  1
  O  O318  1  0.85278033  0.35704267  0.42537067  1
  O  O319  1  0.50426233  0.14721967  0.42537067  1
  O  O320  1  0.64295733  0.49573767  0.42537067  1
  O  O321  1  0.97629067  0.81388633  0.59203733  1
  O  O322  1  0.83759567  0.02370933  0.59203733  1
  O  O323  1  0.18611367  0.16240433  0.59203733  1
  O  O324  1  0.88198367  0.44110733  0.55112333  1
  O  O325  1  0.55912367  0.11801633  0.55112333  1
  O  O326  1  0.55889267  0.44087633  0.55112333  1
  O  O327  1  0.22555933  0.45134967  0.38445667  1
  O  O328  1  0.22579033  0.77444067  0.38445667  1
  O  O329  1  0.54865033  0.77420967  0.38445667  1
  O  O330  1  0.11801633  0.55889267  0.44887667  1
  O  O331  1  0.44087633  0.88198367  0.44887667  1
  O  O332  1  0.44110733  0.55912367  0.44887667  1
  O  O333  1  0.77444067  0.54865033  0.61554333  1
  O  O334  1  0.77420967  0.22555933  0.61554333  1
  O  O335  1  0.45134967  0.22579033  0.61554333  1
  O  O336  1  0.37002000  0.43408000  0.71208500  1
  O  O337  1  0.06406000  0.62998000  0.71208500  1
  O  O338  1  0.56592000  0.93594000  0.71208500  1
  O  O339  1  0.89925333  0.29664667  0.87875167  1
  O  O340  1  0.39739333  0.10074667  0.87875167  1
  O  O341  1  0.70335333  0.60260667  0.87875167  1
  O  O342  1  0.96331333  0.23258667  0.95458167  1
  O  O343  1  0.26927333  0.03668667  0.95458167  1
  O  O344  1  0.76741333  0.73072667  0.95458167  1
  O  O345  1  0.43408000  0.37002000  0.78791500  1
  O  O346  1  0.93594000  0.56592000  0.78791500  1
  O  O347  1  0.62998000  0.06406000  0.78791500  1
  O  O348  1  0.87059633  0.54874567  0.84730667  1
  O  O349  1  0.67814933  0.12940367  0.84730667  1
  O  O350  1  0.45125433  0.32185067  0.84730667  1
  O  O351  1  0.11792100  0.46273700  0.68064000  1
  O  O352  1  0.34481600  0.88207900  0.68064000  1
  O  O353  1  0.53726300  0.65518400  0.68064000  1
  O  O354  1  0.46273700  0.11792100  0.81936000  1
  O  O355  1  0.65518400  0.53726300  0.81936000  1
  O  O356  1  0.88207900  0.34481600  0.81936000  1
  O  O357  1  0.21541233  0.20392967  0.98602667  1
  O  O358  1  0.98851733  0.78458767  0.98602667  1
  O  O359  1  0.79607033  0.01148267  0.98602667  1
  O  O360  1  0.45079533  0.19991967  0.99838267  1
  O  O361  1  0.74912433  0.54920467  0.99838267  1
  O  O362  1  0.80008033  0.25087567  0.99838267  1
  O  O363  1  0.46674700  0.88253800  0.83171600  1
  O  O364  1  0.41579100  0.53325300  0.83171600  1
  O  O365  1  0.11746200  0.58420900  0.83171600  1
  O  O366  1  0.88253800  0.46674700  0.66828400  1
  O  O367  1  0.58420900  0.11746200  0.66828400  1
  O  O368  1  0.53325300  0.41579100  0.66828400  1
  O  O369  1  0.86658633  0.78412867  0.83495067  1
  O  O370  1  0.91754233  0.13341367  0.83495067  1
  O  O371  1  0.21587133  0.08245767  0.83495067  1
  O  O372  1  0.81388633  0.97629067  0.90796267  1
  O  O373  1  0.16240433  0.18611367  0.90796267  1
  O  O374  1  0.02370933  0.83759567  0.90796267  1
  O  O375  1  0.69037600  0.51944700  0.74129600  1
  O  O376  1  0.82907100  0.30962400  0.74129600  1
  O  O377  1  0.48055300  0.17092900  0.74129600  1
  O  O378  1  0.51944700  0.69037600  0.75870400  1
  O  O379  1  0.17092900  0.48055300  0.75870400  1
  O  O380  1  0.30962400  0.82907100  0.75870400  1
  O  O381  1  0.64295733  0.14721967  0.92537067  1
  O  O382  1  0.50426233  0.35704267  0.92537067  1
  O  O383  1  0.85278033  0.49573767  0.92537067  1
  O  O384  1  0.54865033  0.77444067  0.88445667  1
  O  O385  1  0.22579033  0.45134967  0.88445667  1
  O  O386  1  0.22555933  0.77420967  0.88445667  1
  O  O387  1  0.89222600  0.78468300  0.71779000  1
  O  O388  1  0.89245700  0.10777400  0.71779000  1
  O  O389  1  0.21531700  0.10754300  0.71779000  1
  O  O390  1  0.78468300  0.89222600  0.78221000  1
  O  O391  1  0.10754300  0.21531700  0.78221000  1
  O  O392  1  0.10777400  0.89245700  0.78221000  1
  O  O393  1  0.44110733  0.88198367  0.94887667  1
  O  O394  1  0.44087633  0.55889267  0.94887667  1
  O  O395  1  0.11801633  0.55912367  0.94887667  1
