# generated using pymatgen
data_Ba3LaCl9
_symmetry_space_group_name_H-M   'P 1'
_cell_length_a   7.70367800
_cell_length_b   7.18299100
_cell_length_c   29.93891431
_cell_angle_alpha   90.00000000
_cell_angle_beta   92.10079119
_cell_angle_gamma   90.00000000
_symmetry_Int_Tables_number   1
_chemical_formula_structural   Ba3LaCl9
_chemical_formula_sum   'Ba12 La4 Cl36'
_cell_volume   1655.56981102
_cell_formula_units_Z   4
loop_
 _symmetry_equiv_pos_site_id
 _symmetry_equiv_pos_as_xyz
  1  'x, y, z'
loop_
 _atom_site_type_symbol
 _atom_site_label
 _atom_site_symmetry_multiplicity
 _atom_site_fract_x
 _atom_site_fract_y
 _atom_site_fract_z
 _atom_site_occupancy
  Ba  Ba0  1  0.31591800  0.02662000  0.93306400  1
  Ba  Ba1  1  0.28703500  0.99524400  0.69199400  1
  Ba  Ba2  1  0.31591800  0.97338000  0.43306400  1
  Ba  Ba3  1  0.28703500  0.00475600  0.19199400  1
  Ba  Ba4  1  0.68716300  0.01036800  0.56985700  1
  Ba  Ba5  1  0.71877900  0.01382100  0.80821500  1
  Ba  Ba6  1  0.68716300  0.98963200  0.06985700  1
  Ba  Ba7  1  0.71877900  0.98617900  0.30821500  1
  Ba  Ba8  1  0.78084600  0.47565300  0.69212000  1
  Ba  Ba9  1  0.81752400  0.48518100  0.93063200  1
  Ba  Ba10  1  0.78084600  0.52434700  0.19212000  1
  Ba  Ba11  1  0.81752400  0.51481900  0.43063200  1
  La  La12  1  0.20714200  0.47994800  0.80667100  1
  La  La13  1  0.18187800  0.45597400  0.56697100  1
  La  La14  1  0.20714200  0.52005200  0.30667100  1
  La  La15  1  0.18187800  0.54402600  0.06697100  1
  Cl  Cl16  1  0.02375400  0.20912100  0.86776400  1
  Cl  Cl17  1  0.01769700  0.18998800  0.75311500  1
  Cl  Cl18  1  0.00771100  0.19584200  0.62707600  1
  Cl  Cl19  1  0.02375400  0.79087900  0.36776400  1
  Cl  Cl20  1  0.01769700  0.81001200  0.25311500  1
  Cl  Cl21  1  0.10881300  0.29950900  0.99425400  1
  Cl  Cl22  1  0.00771100  0.80415800  0.12707600  1
  Cl  Cl23  1  0.15306700  0.66447100  0.89060500  1
  Cl  Cl24  1  0.10881300  0.70049100  0.49425400  1
  Cl  Cl25  1  0.15931500  0.59726500  0.70953800  1
  Cl  Cl26  1  0.15306700  0.33552900  0.39060500  1
  Cl  Cl27  1  0.15931500  0.40273500  0.20953800  1
  Cl  Cl28  1  0.35324900  0.83725600  0.79572900  1
  Cl  Cl29  1  0.35014000  0.78538900  0.59951400  1
  Cl  Cl30  1  0.35324900  0.16274400  0.29572900  1
  Cl  Cl31  1  0.35014000  0.21461100  0.09951400  1
  Cl  Cl32  1  0.41032300  0.25633500  0.51193300  1
  Cl  Cl33  1  0.48818100  0.32020900  0.86625700  1
  Cl  Cl34  1  0.48288700  0.30751000  0.75265700  1
  Cl  Cl35  1  0.46926800  0.30124200  0.62735400  1
  Cl  Cl36  1  0.41032300  0.74366500  0.01193300  1
  Cl  Cl37  1  0.48818100  0.67979100  0.36625700  1
  Cl  Cl38  1  0.48288700  0.69249000  0.25265700  1
  Cl  Cl39  1  0.46926800  0.69875800  0.12735400  1
  Cl  Cl40  1  0.59949200  0.23568600  0.98975900  1
  Cl  Cl41  1  0.59949200  0.76431400  0.48975900  1
  Cl  Cl42  1  0.65586800  0.85307500  0.90094200  1
  Cl  Cl43  1  0.67812800  0.89474700  0.69875600  1
  Cl  Cl44  1  0.65586800  0.14692500  0.40094200  1
  Cl  Cl45  1  0.67812800  0.10525300  0.19875600  1
  Cl  Cl46  1  0.85609100  0.60343000  0.79749500  1
  Cl  Cl47  1  0.88091700  0.64259700  0.59871600  1
  Cl  Cl48  1  0.85609100  0.39657000  0.29749500  1
  Cl  Cl49  1  0.88091700  0.35740300  0.09871600  1
  Cl  Cl50  1  0.93954800  0.24710800  0.51082800  1
  Cl  Cl51  1  0.93954800  0.75289200  0.01082800  1
