# generated using pymatgen
data_Rb2S2O7
_symmetry_space_group_name_H-M   'P 1'
_cell_length_a   7.73515000
_cell_length_b   7.84376113
_cell_length_c   13.19959866
_cell_angle_alpha   99.81936169
_cell_angle_beta   91.69380518
_cell_angle_gamma   92.24587982
_symmetry_Int_Tables_number   1
_chemical_formula_structural   Rb2S2O7
_chemical_formula_sum   'Rb8 S8 O28'
_cell_volume   787.98210869
_cell_formula_units_Z   4
loop_
 _symmetry_equiv_pos_site_id
 _symmetry_equiv_pos_as_xyz
  1  'x, y, z'
loop_
 _atom_site_type_symbol
 _atom_site_label
 _atom_site_symmetry_multiplicity
 _atom_site_fract_x
 _atom_site_fract_y
 _atom_site_fract_z
 _atom_site_occupancy
  Rb  Rb0  1  0.11597300  0.87546300  0.13223000  1
  Rb  Rb1  1  0.77673400  0.37855300  0.15477900  1
  Rb  Rb2  1  0.55633300  0.79579300  0.34248100  1
  Rb  Rb3  1  0.21503900  0.29442600  0.37193100  1
  Rb  Rb4  1  0.78496100  0.70557400  0.62806900  1
  Rb  Rb5  1  0.44366700  0.20420700  0.65751900  1
  Rb  Rb6  1  0.22326600  0.62144700  0.84522100  1
  Rb  Rb7  1  0.88402700  0.12453700  0.86777000  1
  S  S8  1  0.65837900  0.86111300  0.08480100  1
  S  S9  1  0.27849200  0.38645700  0.10711800  1
  S  S10  1  0.06548500  0.75989800  0.39104500  1
  S  S11  1  0.70238500  0.27537700  0.41735200  1
  S  S12  1  0.29761500  0.72462300  0.58264800  1
  S  S13  1  0.93451500  0.24010200  0.60895500  1
  S  S14  1  0.72150800  0.61354300  0.89288200  1
  S  S15  1  0.34162100  0.13888700  0.91519900  1
  O  O16  1  0.41044700  0.27100200  0.02394000  1
  O  O17  1  0.19168700  0.50416000  0.05033600  1
  O  O18  1  0.77208900  0.99488000  0.05404100  1
  O  O19  1  0.49517400  0.92055600  0.12657100  1
  O  O20  1  0.75009600  0.75278600  0.14677700  1
  O  O21  1  0.16023000  0.26075200  0.14259200  1
  O  O22  1  0.40713100  0.46841100  0.18527800  1
  O  O23  1  0.02999400  0.61199900  0.30870000  1
  O  O24  1  0.18095100  0.89385700  0.36173100  1
  O  O25  1  0.81933500  0.18732000  0.34321300  1
  O  O26  1  0.64907700  0.44314000  0.39688300  1
  O  O27  1  0.91589400  0.82201200  0.44747800  1
  O  O28  1  0.18440700  0.65720000  0.47153900  1
  O  O29  1  0.55883200  0.16403500  0.44208500  1
  O  O30  1  0.44116800  0.83596500  0.55791500  1
  O  O31  1  0.81559300  0.34280000  0.52846100  1
  O  O32  1  0.08410600  0.17798800  0.55252200  1
  O  O33  1  0.35092300  0.55686000  0.60311700  1
  O  O34  1  0.18066500  0.81268000  0.65678700  1
  O  O35  1  0.81904900  0.10614300  0.63826900  1
  O  O36  1  0.97000600  0.38800100  0.69130000  1
  O  O37  1  0.59286900  0.53158900  0.81472200  1
  O  O38  1  0.83977000  0.73924800  0.85740800  1
  O  O39  1  0.24990400  0.24721400  0.85322300  1
  O  O40  1  0.50482600  0.07944400  0.87342900  1
  O  O41  1  0.22791100  0.00512000  0.94595900  1
  O  O42  1  0.80831300  0.49584000  0.94966400  1
  O  O43  1  0.58955300  0.72899800  0.97606000  1
