# generated using pymatgen
data_Li2AgF3
_symmetry_space_group_name_H-M   'P 1'
_cell_length_a   5.26782600
_cell_length_b   10.65626600
_cell_length_c   5.28778864
_cell_angle_alpha   90.00000000
_cell_angle_beta   107.96148919
_cell_angle_gamma   90.00000000
_symmetry_Int_Tables_number   1
_chemical_formula_structural   Li2AgF3
_chemical_formula_sum   'Li8 Ag4 F12'
_cell_volume   282.36549538
_cell_formula_units_Z   4
loop_
 _symmetry_equiv_pos_site_id
 _symmetry_equiv_pos_as_xyz
  1  'x, y, z'
loop_
 _atom_site_type_symbol
 _atom_site_label
 _atom_site_symmetry_multiplicity
 _atom_site_fract_x
 _atom_site_fract_y
 _atom_site_fract_z
 _atom_site_occupancy
  Li  Li0  1  0.00000000  0.25654000  0.75000000  1
  Li  Li1  1  0.50000000  0.14662800  0.75000000  1
  Li  Li2  1  0.00000000  0.35337200  0.25000000  1
  Li  Li3  1  0.50000000  0.24346000  0.25000000  1
  Li  Li4  1  0.50000000  0.75654000  0.75000000  1
  Li  Li5  1  0.00000000  0.64662800  0.75000000  1
  Li  Li6  1  0.50000000  0.85337200  0.25000000  1
  Li  Li7  1  0.00000000  0.74346000  0.25000000  1
  Ag  Ag8  1  0.00000000  0.05900800  0.25000000  1
  Ag  Ag9  1  0.50000000  0.44099200  0.75000000  1
  Ag  Ag10  1  0.50000000  0.55900800  0.25000000  1
  Ag  Ag11  1  0.00000000  0.94099200  0.75000000  1
  F  F12  1  0.27441300  0.12225000  0.96234900  1
  F  F13  1  0.75000000  0.25000000  0.00000000  1
  F  F14  1  0.72558700  0.12225000  0.53765100  1
  F  F15  1  0.25000000  0.25000000  0.50000000  1
  F  F16  1  0.77441300  0.37775000  0.46234900  1
  F  F17  1  0.22558700  0.37775000  0.03765100  1
  F  F18  1  0.77441300  0.62225000  0.96234900  1
  F  F19  1  0.25000000  0.75000000  0.00000000  1
  F  F20  1  0.22558700  0.62225000  0.53765100  1
  F  F21  1  0.75000000  0.75000000  0.50000000  1
  F  F22  1  0.27441300  0.87775000  0.46234900  1
  F  F23  1  0.72558700  0.87775000  0.03765100  1
