# generated using pymatgen
data_Li4Ti3Mn2Cr3O16
_symmetry_space_group_name_H-M   'P 1'
_cell_length_a   10.19638400
_cell_length_b   5.94094000
_cell_length_c   9.58243604
_cell_angle_alpha   90.00000000
_cell_angle_beta   91.52926710
_cell_angle_gamma   90.00000000
_symmetry_Int_Tables_number   1
_chemical_formula_structural   Li4Ti3Mn2Cr3O16
_chemical_formula_sum   'Li8 Ti6 Mn4 Cr6 O32'
_cell_volume   580.25990842
_cell_formula_units_Z   2
loop_
 _symmetry_equiv_pos_site_id
 _symmetry_equiv_pos_as_xyz
  1  'x, y, z'
loop_
 _atom_site_type_symbol
 _atom_site_label
 _atom_site_symmetry_multiplicity
 _atom_site_fract_x
 _atom_site_fract_y
 _atom_site_fract_z
 _atom_site_occupancy
  Li  Li0  1  0.33163700  0.00000000  0.10388700  1
  Li  Li1  1  0.00522700  0.00000000  0.00543000  1
  Li  Li2  1  0.00931700  0.00000000  0.50405400  1
  Li  Li3  1  0.66224400  0.00000000  0.60122700  1
  Li  Li4  1  0.83163700  0.50000000  0.10388700  1
  Li  Li5  1  0.50522700  0.50000000  0.00543000  1
  Li  Li6  1  0.50931700  0.50000000  0.50405400  1
  Li  Li7  1  0.16224400  0.50000000  0.60122700  1
  Ti  Ti8  1  0.83703600  0.00000000  0.29192900  1
  Ti  Ti9  1  0.40949100  0.24868400  0.78520000  1
  Ti  Ti10  1  0.40949100  0.75131600  0.78520000  1
  Ti  Ti11  1  0.33703600  0.50000000  0.29192900  1
  Ti  Ti12  1  0.90949100  0.74868400  0.78520000  1
  Ti  Ti13  1  0.90949100  0.25131600  0.78520000  1
  Mn  Mn14  1  0.33092900  0.00000000  0.51013400  1
  Mn  Mn15  1  0.66308900  0.00000000  0.02030300  1
  Mn  Mn16  1  0.83092900  0.50000000  0.51013400  1
  Mn  Mn17  1  0.16308900  0.50000000  0.02030300  1
  Cr  Cr18  1  0.16848200  0.00000000  0.79221700  1
  Cr  Cr19  1  0.58831800  0.24660600  0.28460000  1
  Cr  Cr20  1  0.58831800  0.75339400  0.28460000  1
  Cr  Cr21  1  0.66848200  0.50000000  0.79221700  1
  Cr  Cr22  1  0.08831800  0.74660600  0.28460000  1
  Cr  Cr23  1  0.08831800  0.25339400  0.28460000  1
  O  O24  1  0.41903650  0.26099950  0.39583900  1
  O  O25  1  0.47406400  0.00000000  0.65859600  1
  O  O26  1  0.34050200  0.00000000  0.89662800  1
  O  O27  1  0.99461200  0.00000000  0.69150300  1
  O  O28  1  0.99888600  0.00000000  0.18843300  1
  O  O29  1  0.41903650  0.73900050  0.39583900  1
  O  O30  1  0.25668050  0.22635550  0.66801800  1
  O  O31  1  0.25668050  0.77364450  0.66801800  1
  O  O32  1  0.83507700  0.00000000  0.89918100  1
  O  O33  1  0.16789900  0.00000000  0.40016900  1
  O  O34  1  0.74016250  0.21546150  0.15368600  1
  O  O35  1  0.74016250  0.78453850  0.15368600  1
  O  O36  1  0.67458700  0.00000000  0.39439100  1
  O  O37  1  0.57920600  0.24771500  0.90131100  1
  O  O38  1  0.52098400  0.00000000  0.15677300  1
  O  O39  1  0.57920600  0.75228500  0.90131100  1
  O  O40  1  0.91903650  0.76099950  0.39583900  1
  O  O41  1  0.97406400  0.50000000  0.65859600  1
  O  O42  1  0.84050200  0.50000000  0.89662800  1
  O  O43  1  0.49461200  0.50000000  0.69150300  1
  O  O44  1  0.49888600  0.50000000  0.18843300  1
  O  O45  1  0.91903650  0.23900050  0.39583900  1
  O  O46  1  0.75668050  0.72635550  0.66801800  1
  O  O47  1  0.75668050  0.27364450  0.66801800  1
  O  O48  1  0.33507700  0.50000000  0.89918100  1
  O  O49  1  0.66789900  0.50000000  0.40016900  1
  O  O50  1  0.24016250  0.71546150  0.15368600  1
  O  O51  1  0.24016250  0.28453850  0.15368600  1
  O  O52  1  0.17458700  0.50000000  0.39439100  1
  O  O53  1  0.07920600  0.74771500  0.90131100  1
  O  O54  1  0.02098400  0.50000000  0.15677300  1
  O  O55  1  0.07920600  0.25228500  0.90131100  1
