# generated using pymatgen
data_Na5Sn2P(CO4)4
_symmetry_space_group_name_H-M   'P 1'
_cell_length_a   14.23949200
_cell_length_b   14.51406800
_cell_length_c   9.94566501
_cell_angle_alpha   90.00000000
_cell_angle_beta   133.57788112
_cell_angle_gamma   90.00000000
_symmetry_Int_Tables_number   1
_chemical_formula_structural   Na5Sn2P(CO4)4
_chemical_formula_sum   'Na20 Sn8 P4 C16 O64'
_cell_volume   1489.08236214
_cell_formula_units_Z   4
loop_
 _symmetry_equiv_pos_site_id
 _symmetry_equiv_pos_as_xyz
  1  'x, y, z'
loop_
 _atom_site_type_symbol
 _atom_site_label
 _atom_site_symmetry_multiplicity
 _atom_site_fract_x
 _atom_site_fract_y
 _atom_site_fract_z
 _atom_site_occupancy
  Na  Na0  1  0.80118400  0.87187600  0.85885400  1
  Na  Na1  1  0.80118400  0.12812400  0.35885400  1
  Na  Na2  1  0.19921350  0.87090950  0.25554600  1
  Na  Na3  1  0.50000000  0.56955700  0.25000000  1
  Na  Na4  1  0.80078650  0.87090950  0.24445400  1
  Na  Na5  1  0.19921350  0.12909050  0.75554600  1
  Na  Na6  1  0.80078650  0.12909050  0.74445400  1
  Na  Na7  1  0.50000000  0.43044300  0.75000000  1
  Na  Na8  1  0.19881600  0.87187600  0.64114600  1
  Na  Na9  1  0.19881600  0.12812400  0.14114600  1
  Na  Na10  1  0.30118400  0.37187600  0.85885400  1
  Na  Na11  1  0.30118400  0.62812400  0.35885400  1
  Na  Na12  1  0.69921350  0.37090950  0.25554600  1
  Na  Na13  1  0.00000000  0.06955700  0.25000000  1
  Na  Na14  1  0.30078650  0.37090950  0.24445400  1
  Na  Na15  1  0.69921350  0.62909050  0.75554600  1
  Na  Na16  1  0.30078650  0.62909050  0.74445400  1
  Na  Na17  1  0.00000000  0.93044300  0.75000000  1
  Na  Na18  1  0.69881600  0.37187600  0.64114600  1
  Na  Na19  1  0.69881600  0.62812400  0.14114600  1
  Sn  Sn20  1  0.25000000  0.25000000  0.50000000  1
  Sn  Sn21  1  0.50000000  0.00000000  0.50000000  1
  Sn  Sn22  1  0.25000000  0.75000000  0.00000000  1
  Sn  Sn23  1  0.50000000  0.00000000  0.00000000  1
  Sn  Sn24  1  0.75000000  0.75000000  0.50000000  1
  Sn  Sn25  1  0.00000000  0.50000000  0.50000000  1
  Sn  Sn26  1  0.75000000  0.25000000  0.00000000  1
  Sn  Sn27  1  0.00000000  0.50000000  0.00000000  1
  P  P28  1  0.50000000  0.62550800  0.75000000  1
  P  P29  1  0.50000000  0.37449200  0.25000000  1
  P  P30  1  0.00000000  0.12550800  0.75000000  1
  P  P31  1  0.00000000  0.87449200  0.25000000  1
  C  C32  1  0.50365500  0.78619300  0.45385200  1
  C  C33  1  0.68587850  0.97313450  0.43126600  1
  C  C34  1  0.31412150  0.97313450  0.06873400  1
  C  C35  1  0.49634500  0.78619300  0.04614800  1
  C  C36  1  0.50365500  0.21380700  0.95385200  1
  C  C37  1  0.68587850  0.02686550  0.93126600  1
  C  C38  1  0.31412150  0.02686550  0.56873400  1
  C  C39  1  0.49634500  0.21380700  0.54614800  1
  C  C40  1  0.00365500  0.28619300  0.45385200  1
  C  C41  1  0.18587850  0.47313450  0.43126600  1
  C  C42  1  0.81412150  0.47313450  0.06873400  1
  C  C43  1  0.99634500  0.28619300  0.04614800  1
  C  C44  1  0.00365500  0.71380700  0.95385200  1
  C  C45  1  0.18587850  0.52686550  0.93126600  1
  C  C46  1  0.81412150  0.52686550  0.56873400  1
  C  C47  1  0.99634500  0.71380700  0.54614800  1
  O  O48  1  0.62582300  0.68406200  0.87790800  1
  O  O49  1  0.49614800  0.56208200  0.87473900  1
  O  O50  1  0.50385200  0.56208200  0.62526100  1
  O  O51  1  0.37417700  0.68406200  0.62209200  1
  O  O52  1  0.62741950  0.78166850  0.58654500  1
  O  O53  1  0.66934250  0.97900450  0.54684300  1
  O  O54  1  0.77087450  0.91756550  0.46951000  1
  O  O55  1  0.43980100  0.86264000  0.42726300  1
  O  O56  1  0.43508550  0.72031950  0.33673500  1
  O  O57  1  0.61770250  0.02734050  0.28612000  1
  O  O58  1  0.56491450  0.72031950  0.16326500  1
  O  O59  1  0.38229750  0.02734050  0.21388000  1
  O  O60  1  0.62741950  0.21833150  0.08654500  1
  O  O61  1  0.66934250  0.02099550  0.04684300  1
  O  O62  1  0.56019900  0.86264000  0.07273700  1
  O  O63  1  0.22912550  0.91756550  0.03049000  1
  O  O64  1  0.43980100  0.13736000  0.92726300  1
  O  O65  1  0.77087450  0.08243450  0.96951000  1
  O  O66  1  0.33065750  0.97900450  0.95315700  1
  O  O67  1  0.37258050  0.78166850  0.91345500  1
  O  O68  1  0.61770250  0.97265950  0.78612000  1
  O  O69  1  0.43508550  0.27968050  0.83673500  1
  O  O70  1  0.38229750  0.97265950  0.71388000  1
  O  O71  1  0.56491450  0.27968050  0.66326500  1
  O  O72  1  0.22912550  0.08243450  0.53049000  1
  O  O73  1  0.56019900  0.13736000  0.57273700  1
  O  O74  1  0.33065750  0.02099550  0.45315700  1
  O  O75  1  0.37258050  0.21833150  0.41345500  1
  O  O76  1  0.62582300  0.31593800  0.37790800  1
  O  O77  1  0.49614800  0.43791800  0.37473900  1
  O  O78  1  0.50385200  0.43791800  0.12526100  1
  O  O79  1  0.37417700  0.31593800  0.12209200  1
  O  O80  1  0.12582300  0.18406200  0.87790800  1
  O  O81  1  0.99614800  0.06208200  0.87473900  1
  O  O82  1  0.00385200  0.06208200  0.62526100  1
  O  O83  1  0.87417700  0.18406200  0.62209200  1
  O  O84  1  0.12741950  0.28166850  0.58654500  1
  O  O85  1  0.16934250  0.47900450  0.54684300  1
  O  O86  1  0.27087450  0.41756550  0.46951000  1
  O  O87  1  0.93980100  0.36264000  0.42726300  1
  O  O88  1  0.93508550  0.22031950  0.33673500  1
  O  O89  1  0.11770250  0.52734050  0.28612000  1
  O  O90  1  0.06491450  0.22031950  0.16326500  1
  O  O91  1  0.88229750  0.52734050  0.21388000  1
  O  O92  1  0.12741950  0.71833150  0.08654500  1
  O  O93  1  0.16934250  0.52099550  0.04684300  1
  O  O94  1  0.06019900  0.36264000  0.07273700  1
  O  O95  1  0.72912550  0.41756550  0.03049000  1
  O  O96  1  0.93980100  0.63736000  0.92726300  1
  O  O97  1  0.27087450  0.58243450  0.96951000  1
  O  O98  1  0.83065750  0.47900450  0.95315700  1
  O  O99  1  0.87258050  0.28166850  0.91345500  1
  O  O100  1  0.11770250  0.47265950  0.78612000  1
  O  O101  1  0.93508550  0.77968050  0.83673500  1
  O  O102  1  0.88229750  0.47265950  0.71388000  1
  O  O103  1  0.06491450  0.77968050  0.66326500  1
  O  O104  1  0.72912550  0.58243450  0.53049000  1
  O  O105  1  0.06019900  0.63736000  0.57273700  1
  O  O106  1  0.83065750  0.52099550  0.45315700  1
  O  O107  1  0.87258050  0.71833150  0.41345500  1
  O  O108  1  0.12582300  0.81593800  0.37790800  1
  O  O109  1  0.99614800  0.93791800  0.37473900  1
  O  O110  1  0.00385200  0.93791800  0.12526100  1
  O  O111  1  0.87417700  0.81593800  0.12209200  1
