# generated using pymatgen
data_Ga2HgO4
_symmetry_space_group_name_H-M   'P 1'
_cell_length_a   8.83630200
_cell_length_b   8.83630200
_cell_length_c   8.83630200
_cell_angle_alpha   90.00000000
_cell_angle_beta   90.00000000
_cell_angle_gamma   90.00000000
_symmetry_Int_Tables_number   1
_chemical_formula_structural   Ga2HgO4
_chemical_formula_sum   'Ga16 Hg8 O32'
_cell_volume   689.94051933
_cell_formula_units_Z   8
loop_
 _symmetry_equiv_pos_site_id
 _symmetry_equiv_pos_as_xyz
  1  'x, y, z'
loop_
 _atom_site_type_symbol
 _atom_site_label
 _atom_site_symmetry_multiplicity
 _atom_site_fract_x
 _atom_site_fract_y
 _atom_site_fract_z
 _atom_site_occupancy
  Ga  Ga0  1  0.37500000  0.87500000  0.12500000  1
  Ga  Ga1  1  0.37500000  0.62500000  0.37500000  1
  Ga  Ga2  1  0.12500000  0.87500000  0.37500000  1
  Ga  Ga3  1  0.12500000  0.62500000  0.12500000  1
  Ga  Ga4  1  0.37500000  0.37500000  0.62500000  1
  Ga  Ga5  1  0.37500000  0.12500000  0.87500000  1
  Ga  Ga6  1  0.12500000  0.37500000  0.87500000  1
  Ga  Ga7  1  0.12500000  0.12500000  0.62500000  1
  Ga  Ga8  1  0.87500000  0.87500000  0.62500000  1
  Ga  Ga9  1  0.87500000  0.62500000  0.87500000  1
  Ga  Ga10  1  0.62500000  0.87500000  0.87500000  1
  Ga  Ga11  1  0.62500000  0.62500000  0.62500000  1
  Ga  Ga12  1  0.87500000  0.37500000  0.12500000  1
  Ga  Ga13  1  0.87500000  0.12500000  0.37500000  1
  Ga  Ga14  1  0.62500000  0.37500000  0.37500000  1
  Ga  Ga15  1  0.62500000  0.12500000  0.12500000  1
  Hg  Hg16  1  0.25000000  0.25000000  0.25000000  1
  Hg  Hg17  1  0.50000000  0.00000000  0.50000000  1
  Hg  Hg18  1  0.25000000  0.75000000  0.75000000  1
  Hg  Hg19  1  0.50000000  0.50000000  0.00000000  1
  Hg  Hg20  1  0.75000000  0.25000000  0.75000000  1
  Hg  Hg21  1  0.00000000  0.00000000  0.00000000  1
  Hg  Hg22  1  0.75000000  0.75000000  0.25000000  1
  Hg  Hg23  1  0.00000000  0.50000000  0.50000000  1
  O  O24  1  0.39518200  0.39518200  0.39518200  1
  O  O25  1  0.39518200  0.10481800  0.10481800  1
  O  O26  1  0.64518200  0.14518200  0.35481800  1
  O  O27  1  0.14518200  0.85481800  0.14518200  1
  O  O28  1  0.10481800  0.39518200  0.10481800  1
  O  O29  1  0.10481800  0.10481800  0.39518200  1
  O  O30  1  0.85481800  0.14518200  0.14518200  1
  O  O31  1  0.35481800  0.85481800  0.35481800  1
  O  O32  1  0.39518200  0.89518200  0.89518200  1
  O  O33  1  0.39518200  0.60481800  0.60481800  1
  O  O34  1  0.64518200  0.64518200  0.85481800  1
  O  O35  1  0.14518200  0.35481800  0.64518200  1
  O  O36  1  0.10481800  0.89518200  0.60481800  1
  O  O37  1  0.10481800  0.60481800  0.89518200  1
  O  O38  1  0.85481800  0.64518200  0.64518200  1
  O  O39  1  0.35481800  0.35481800  0.85481800  1
  O  O40  1  0.89518200  0.39518200  0.89518200  1
  O  O41  1  0.89518200  0.10481800  0.60481800  1
  O  O42  1  0.14518200  0.14518200  0.85481800  1
  O  O43  1  0.64518200  0.85481800  0.64518200  1
  O  O44  1  0.60481800  0.39518200  0.60481800  1
  O  O45  1  0.60481800  0.10481800  0.89518200  1
  O  O46  1  0.35481800  0.14518200  0.64518200  1
  O  O47  1  0.85481800  0.85481800  0.85481800  1
  O  O48  1  0.89518200  0.89518200  0.39518200  1
  O  O49  1  0.89518200  0.60481800  0.10481800  1
  O  O50  1  0.14518200  0.64518200  0.35481800  1
  O  O51  1  0.64518200  0.35481800  0.14518200  1
  O  O52  1  0.60481800  0.89518200  0.10481800  1
  O  O53  1  0.60481800  0.60481800  0.39518200  1
  O  O54  1  0.35481800  0.64518200  0.14518200  1
  O  O55  1  0.85481800  0.35481800  0.35481800  1
