# generated using pymatgen
data_Sn2N2O
_symmetry_space_group_name_H-M   'P 1'
_cell_length_a   8.83653900
_cell_length_b   8.83747851
_cell_length_c   8.84701650
_cell_angle_alpha   109.45200518
_cell_angle_beta   109.40988056
_cell_angle_gamma   109.39716906
_symmetry_Int_Tables_number   1
_chemical_formula_structural   Sn2N2O
_chemical_formula_sum   'Sn16 N16 O8'
_cell_volume   532.85780915
_cell_formula_units_Z   8
loop_
 _symmetry_equiv_pos_site_id
 _symmetry_equiv_pos_as_xyz
  1  'x, y, z'
loop_
 _atom_site_type_symbol
 _atom_site_label
 _atom_site_symmetry_multiplicity
 _atom_site_fract_x
 _atom_site_fract_y
 _atom_site_fract_z
 _atom_site_occupancy
  Sn  Sn0  1  0.22331100  0.26035600  0.97512500  1
  Sn  Sn1  1  0.99706100  0.49064500  0.99172100  1
  Sn  Sn2  1  0.75436500  0.97334700  0.72473000  1
  Sn  Sn3  1  0.25024200  0.53730700  0.78707100  1
  Sn  Sn4  1  0.53710400  0.77863900  0.24593100  1
  Sn  Sn5  1  0.02925600  0.28007000  0.25236100  1
  Sn  Sn6  1  0.99177700  0.99183500  0.48889200  1
  Sn  Sn7  1  0.50515900  0.50129200  0.51359400  1
  Sn  Sn8  1  0.51057400  0.00657000  0.00136300  1
  Sn  Sn9  1  0.72172300  0.25656100  0.47186700  1
  Sn  Sn10  1  0.28554300  0.75157000  0.53560500  1
  Sn  Sn11  1  0.47306500  0.20886600  0.74935300  1
  Sn  Sn12  1  0.95580600  0.70769500  0.73866300  1
  Sn  Sn13  1  0.73581500  0.46192700  0.20974700  1
  Sn  Sn14  1  0.25044700  0.03248100  0.29584600  1
  Sn  Sn15  1  0.77855200  0.75032200  0.03263700  1
  N  N16  1  0.27528900  0.53952900  0.04727800  1
  N  N17  1  0.26303500  0.49979600  0.53808300  1
  N  N18  1  0.76247000  0.03688400  0.50469600  1
  N  N19  1  0.53165100  0.77047500  0.99123900  1
  N  N20  1  0.45047000  0.22748300  0.99509600  1
  N  N21  1  0.96896300  0.46402800  0.72978700  1
  N  N22  1  0.22288600  0.95105100  0.49906000  1
  N  N23  1  0.74030600  0.74472700  0.77834700  1
  N  N24  1  0.99904900  0.03683900  0.26119300  1
  N  N25  1  0.77242800  0.23407700  0.23688800  1
  N  N26  1  0.72702500  0.50679100  0.45852200  1
  N  N27  1  0.54254100  0.99725500  0.76715300  1
  N  N28  1  0.76309100  0.72476900  0.26770600  1
  N  N29  1  0.96755400  0.22571000  0.97032400  1
  N  N30  1  0.73514200  0.46292000  0.95762500  1
  N  N31  1  0.50254300  0.26573500  0.54140500  1
  O  O32  1  0.48631200  0.71835400  0.44855400  1
  O  O33  1  0.22170200  0.26881000  0.71987600  1
  O  O34  1  0.05875500  0.77664300  0.04370600  1
  O  O35  1  0.44537200  0.99178200  0.22140600  1
  O  O36  1  0.22175300  0.78237400  0.76845800  1
  O  O37  1  0.01350600  0.96270800  0.73234400  1
  O  O38  1  0.28341400  0.27270700  0.23545500  1
  O  O39  1  0.04494300  0.54907000  0.27129600  1
