# generated using pymatgen
data_Dy2Cu2O5
_symmetry_space_group_name_H-M   'P 1'
_cell_length_a   6.26829500
_cell_length_b   7.19793800
_cell_length_c   11.21290700
_cell_angle_alpha   90.00000000
_cell_angle_beta   90.00000000
_cell_angle_gamma   90.00000000
_symmetry_Int_Tables_number   1
_chemical_formula_structural   Dy2Cu2O5
_chemical_formula_sum   'Dy8 Cu8 O20'
_cell_volume   505.91289462
_cell_formula_units_Z   4
loop_
 _symmetry_equiv_pos_site_id
 _symmetry_equiv_pos_as_xyz
  1  'x, y, z'
loop_
 _atom_site_type_symbol
 _atom_site_label
 _atom_site_symmetry_multiplicity
 _atom_site_fract_x
 _atom_site_fract_y
 _atom_site_fract_z
 _atom_site_occupancy
  Dy  Dy0  1  0.24994100  0.88056400  0.47726300  1
  Dy  Dy1  1  0.24994100  0.88056400  0.02273700  1
  Dy  Dy2  1  0.25005900  0.38056400  0.97726300  1
  Dy  Dy3  1  0.25005900  0.38056400  0.52273700  1
  Dy  Dy4  1  0.74994100  0.61943600  0.47726300  1
  Dy  Dy5  1  0.74994100  0.61943600  0.02273700  1
  Dy  Dy6  1  0.75005900  0.11943600  0.97726300  1
  Dy  Dy7  1  0.75005900  0.11943600  0.52273700  1
  Cu  Cu8  1  0.07216900  0.14887600  0.75000000  1
  Cu  Cu9  1  0.08660000  0.62782100  0.75000000  1
  Cu  Cu10  1  0.41340000  0.12782100  0.25000000  1
  Cu  Cu11  1  0.42783100  0.64887600  0.25000000  1
  Cu  Cu12  1  0.57216900  0.35112400  0.75000000  1
  Cu  Cu13  1  0.58660000  0.87217900  0.75000000  1
  Cu  Cu14  1  0.91340000  0.37217900  0.25000000  1
  Cu  Cu15  1  0.92783100  0.85112400  0.25000000  1
  O  O16  1  0.06912800  0.64379000  0.91447300  1
  O  O17  1  0.06912800  0.64379000  0.58552700  1
  O  O18  1  0.09750800  0.11288500  0.91202400  1
  O  O19  1  0.09750800  0.11288500  0.58797600  1
  O  O20  1  0.25365500  0.38089100  0.75000000  1
  O  O21  1  0.24634500  0.88089100  0.25000000  1
  O  O22  1  0.40249200  0.61288500  0.08797600  1
  O  O23  1  0.40249200  0.61288500  0.41202400  1
  O  O24  1  0.43087200  0.14379000  0.08552700  1
  O  O25  1  0.43087200  0.14379000  0.41447300  1
  O  O26  1  0.56912800  0.85621000  0.91447300  1
  O  O27  1  0.56912800  0.85621000  0.58552700  1
  O  O28  1  0.59750800  0.38711500  0.91202400  1
  O  O29  1  0.59750800  0.38711500  0.58797600  1
  O  O30  1  0.75365500  0.11910900  0.75000000  1
  O  O31  1  0.74634500  0.61910900  0.25000000  1
  O  O32  1  0.90249200  0.88711500  0.41202400  1
  O  O33  1  0.90249200  0.88711500  0.08797600  1
  O  O34  1  0.93087200  0.35621000  0.41447300  1
  O  O35  1  0.93087200  0.35621000  0.08552700  1
