# generated using pymatgen
data_K3P4H5O14
_symmetry_space_group_name_H-M   'P 1'
_cell_length_a   17.45880000
_cell_length_b   9.04352000
_cell_length_c   11.11375931
_cell_angle_alpha   90.00000000
_cell_angle_beta   129.28759248
_cell_angle_gamma   90.00000000
_symmetry_Int_Tables_number   1
_chemical_formula_structural   K3P4H5O14
_chemical_formula_sum   'K12 P16 H20 O56'
_cell_volume   1358.12934443
_cell_formula_units_Z   4
loop_
 _symmetry_equiv_pos_site_id
 _symmetry_equiv_pos_as_xyz
  1  'x, y, z'
loop_
 _atom_site_type_symbol
 _atom_site_label
 _atom_site_symmetry_multiplicity
 _atom_site_fract_x
 _atom_site_fract_y
 _atom_site_fract_z
 _atom_site_occupancy
  K  K0  1  0.50000000  0.06119000  0.75000000  1
  K  K1  1  0.50000000  0.93881000  0.25000000  1
  K  K2  1  0.34820350  0.44357850  0.61574300  1
  K  K3  1  0.65179650  0.44357850  0.88425700  1
  K  K4  1  0.65179650  0.55642150  0.38425700  1
  K  K5  1  0.34820350  0.55642150  0.11574300  1
  K  K6  1  0.00000000  0.56119000  0.75000000  1
  K  K7  1  0.00000000  0.43881000  0.25000000  1
  K  K8  1  0.84820350  0.94357850  0.61574300  1
  K  K9  1  0.15179650  0.94357850  0.88425700  1
  K  K10  1  0.15179650  0.05642150  0.38425700  1
  K  K11  1  0.84820350  0.05642150  0.11574300  1
  P  P12  1  0.82073700  0.30576200  0.80709100  1
  P  P13  1  0.67926300  0.80576200  0.69290900  1
  P  P14  1  0.17926300  0.69423800  0.19290900  1
  P  P15  1  0.32073700  0.19423800  0.30709100  1
  P  P16  1  0.53163600  0.73913700  0.98394900  1
  P  P17  1  0.46836400  0.73913700  0.51605100  1
  P  P18  1  0.46836400  0.26086300  0.01605100  1
  P  P19  1  0.53163600  0.26086300  0.48394900  1
  P  P20  1  0.32073700  0.80576200  0.80709100  1
  P  P21  1  0.17926300  0.30576200  0.69290900  1
  P  P22  1  0.67926300  0.19423800  0.19290900  1
  P  P23  1  0.82073700  0.69423800  0.30709100  1
  P  P24  1  0.03163600  0.23913700  0.98394900  1
  P  P25  1  0.96836400  0.23913700  0.51605100  1
  P  P26  1  0.96836400  0.76086300  0.01605100  1
  P  P27  1  0.03163600  0.76086300  0.48394900  1
  H  H28  1  0.00000000  0.00000000  0.00000000  1
  H  H29  1  0.50000000  0.50000000  0.50000000  1
  H  H30  1  0.17162350  0.32136950  0.05172300  1
  H  H31  1  0.32837650  0.82136950  0.44827700  1
  H  H32  1  0.82837650  0.67863050  0.94827700  1
  H  H33  1  0.67162350  0.17863050  0.55172300  1
  H  H34  1  0.74818550  0.52505950  0.73081300  1
  H  H35  1  0.75181450  0.02505950  0.76918700  1
  H  H36  1  0.25181450  0.47494050  0.26918700  1
  H  H37  1  0.24818550  0.97494050  0.23081300  1
  H  H38  1  0.50000000  0.50000000  0.00000000  1
  H  H39  1  0.00000000  0.00000000  0.50000000  1
  H  H40  1  0.67162350  0.82136950  0.05172300  1
  H  H41  1  0.82837650  0.32136950  0.44827700  1
  H  H42  1  0.32837650  0.17863050  0.94827700  1
  H  H43  1  0.17162350  0.67863050  0.55172300  1
  H  H44  1  0.24818550  0.02505950  0.73081300  1
  H  H45  1  0.25181450  0.52505950  0.76918700  1
  H  H46  1  0.75181450  0.97494050  0.26918700  1
  H  H47  1  0.74818550  0.47494050  0.23081300  1
  O  O48  1  0.82395300  0.31693600  0.94501000  1
  O  O49  1  0.67604700  0.81693600  0.55499000  1
  O  O50  1  0.17604700  0.68306400  0.05499000  1
  O  O51  1  0.32395300  0.18306400  0.44501000  1
  O  O52  1  0.76121800  0.43805900  0.68773400  1
  O  O53  1  0.73878200  0.93805900  0.81226600  1
  O  O54  1  0.23878200  0.56194100  0.31226600  1
  O  O55  1  0.26121800  0.06194100  0.18773400  1
  O  O56  1  0.78138900  0.16239400  0.71197000  1
  O  O57  1  0.71861100  0.66239400  0.78803000  1
  O  O58  1  0.21861100  0.83760600  0.28803000  1
  O  O59  1  0.28138900  0.33760600  0.21197000  1
  O  O60  1  0.43141650  0.83473350  0.86108600  1
  O  O61  1  0.56858350  0.83473350  0.63891400  1
  O  O62  1  0.56858350  0.16526650  0.13891400  1
  O  O63  1  0.43141650  0.16526650  0.36108600  1
  O  O64  1  0.51054750  0.57842350  0.92272600  1
  O  O65  1  0.48945250  0.57842350  0.57727400  1
  O  O66  1  0.48945250  0.42157650  0.07727400  1
  O  O67  1  0.51054750  0.42157650  0.42272600  1
  O  O68  1  0.56801750  0.75495950  0.14676800  1
  O  O69  1  0.43198250  0.75495950  0.35323200  1
  O  O70  1  0.43198250  0.24504050  0.85323200  1
  O  O71  1  0.56801750  0.24504050  0.64676800  1
  O  O72  1  0.59932400  0.81509500  0.95316200  1
  O  O73  1  0.40067600  0.81509500  0.54683800  1
  O  O74  1  0.40067600  0.18490500  0.04683800  1
  O  O75  1  0.59932400  0.18490500  0.45316200  1
  O  O76  1  0.32395300  0.81693600  0.94501000  1
  O  O77  1  0.17604700  0.31693600  0.55499000  1
  O  O78  1  0.67604700  0.18306400  0.05499000  1
  O  O79  1  0.82395300  0.68306400  0.44501000  1
  O  O80  1  0.26121800  0.93805900  0.68773400  1
  O  O81  1  0.23878200  0.43805900  0.81226600  1
  O  O82  1  0.73878200  0.06194100  0.31226600  1
  O  O83  1  0.76121800  0.56194100  0.18773400  1
  O  O84  1  0.28138900  0.66239400  0.71197000  1
  O  O85  1  0.21861100  0.16239400  0.78803000  1
  O  O86  1  0.71861100  0.33760600  0.28803000  1
  O  O87  1  0.78138900  0.83760600  0.21197000  1
  O  O88  1  0.93141650  0.33473350  0.86108600  1
  O  O89  1  0.06858350  0.33473350  0.63891400  1
  O  O90  1  0.06858350  0.66526650  0.13891400  1
  O  O91  1  0.93141650  0.66526650  0.36108600  1
  O  O92  1  0.01054750  0.07842350  0.92272600  1
  O  O93  1  0.98945250  0.07842350  0.57727400  1
  O  O94  1  0.98945250  0.92157650  0.07727400  1
  O  O95  1  0.01054750  0.92157650  0.42272600  1
  O  O96  1  0.06801750  0.25495950  0.14676800  1
  O  O97  1  0.93198250  0.25495950  0.35323200  1
  O  O98  1  0.93198250  0.74504050  0.85323200  1
  O  O99  1  0.06801750  0.74504050  0.64676800  1
  O  O100  1  0.09932400  0.31509500  0.95316200  1
  O  O101  1  0.90067600  0.31509500  0.54683800  1
  O  O102  1  0.90067600  0.68490500  0.04683800  1
  O  O103  1  0.09932400  0.68490500  0.45316200  1
