# generated using pymatgen
data_Al2CrO5
_symmetry_space_group_name_H-M   'P 1'
_cell_length_a   9.55706305
_cell_length_b   4.96530439
_cell_length_c   6.83805245
_cell_angle_alpha   90.00000000
_cell_angle_beta   111.65630642
_cell_angle_gamma   90.00000000
_symmetry_Int_Tables_number   1
_chemical_formula_structural   Al2CrO5
_chemical_formula_sum   'Al8 Cr4 O20'
_cell_volume   301.58663538
_cell_formula_units_Z   4
loop_
 _symmetry_equiv_pos_site_id
 _symmetry_equiv_pos_as_xyz
  1  'x, y, z'
loop_
 _atom_site_type_symbol
 _atom_site_label
 _atom_site_symmetry_multiplicity
 _atom_site_fract_x
 _atom_site_fract_y
 _atom_site_fract_z
 _atom_site_occupancy
  Al  Al0  1  0.37152300  0.98883300  0.78475550  1
  Al  Al1  1  0.12847700  0.48883300  0.71524450  1
  Al  Al2  1  0.37152300  0.01116700  0.28475550  1
  Al  Al3  1  0.12847700  0.51116700  0.21524450  1
  Al  Al4  1  0.87152300  0.48883300  0.78475550  1
  Al  Al5  1  0.62847700  0.98883300  0.71524450  1
  Al  Al6  1  0.87152300  0.51116700  0.28475550  1
  Al  Al7  1  0.62847700  0.01116700  0.21524450  1
  Cr  Cr8  1  0.50000000  0.50000000  0.00000000  1
  Cr  Cr9  1  0.50000000  0.50000000  0.50000000  1
  Cr  Cr10  1  0.00000000  0.00000000  0.00000000  1
  Cr  Cr11  1  0.00000000  0.00000000  0.50000000  1
  O  O12  1  0.31123550  0.65230950  0.84491750  1
  O  O13  1  0.41594300  0.84853900  0.55351150  1
  O  O14  1  0.41594300  0.15146100  0.05351150  1
  O  O15  1  0.18876450  0.15230950  0.65508250  1
  O  O16  1  0.31123550  0.34769050  0.34491750  1
  O  O17  1  0.50000000  0.30001550  0.75000000  1
  O  O18  1  0.08405700  0.34853900  0.94648850  1
  O  O19  1  0.08405700  0.65146100  0.44648850  1
  O  O20  1  0.18876450  0.84769050  0.15508250  1
  O  O21  1  0.50000000  0.69998450  0.25000000  1
  O  O22  1  0.81123550  0.15230950  0.84491750  1
  O  O23  1  0.91594300  0.34853900  0.55351150  1
  O  O24  1  0.91594300  0.65146100  0.05351150  1
  O  O25  1  0.68876450  0.65230950  0.65508250  1
  O  O26  1  0.81123550  0.84769050  0.34491750  1
  O  O27  1  0.00000000  0.80001550  0.75000000  1
  O  O28  1  0.58405700  0.84853900  0.94648850  1
  O  O29  1  0.58405700  0.15146100  0.44648850  1
  O  O30  1  0.68876450  0.34769050  0.15508250  1
  O  O31  1  0.00000000  0.19998450  0.25000000  1
