# generated using pymatgen
data_Li2CrH8Cl5O4
_symmetry_space_group_name_H-M   'P 1'
_cell_length_a   15.75818800
_cell_length_b   6.36366000
_cell_length_c   13.60380270
_cell_angle_alpha   90.00000000
_cell_angle_beta   113.67681396
_cell_angle_gamma   90.00000000
_symmetry_Int_Tables_number   1
_chemical_formula_structural   Li2CrH8Cl5O4
_chemical_formula_sum   'Li8 Cr4 H32 Cl20 O16'
_cell_volume   1249.35583080
_cell_formula_units_Z   4
loop_
 _symmetry_equiv_pos_site_id
 _symmetry_equiv_pos_as_xyz
  1  'x, y, z'
loop_
 _atom_site_type_symbol
 _atom_site_label
 _atom_site_symmetry_multiplicity
 _atom_site_fract_x
 _atom_site_fract_y
 _atom_site_fract_z
 _atom_site_occupancy
  Li  Li0  1  0.76013100  0.36440500  0.11051900  1
  Li  Li1  1  0.73986900  0.86440500  0.38948100  1
  Li  Li2  1  0.26013100  0.13559500  0.61051900  1
  Li  Li3  1  0.23986900  0.63559500  0.88948100  1
  Li  Li4  1  0.26013100  0.86440500  0.11051900  1
  Li  Li5  1  0.23986900  0.36440500  0.38948100  1
  Li  Li6  1  0.76013100  0.63559500  0.61051900  1
  Li  Li7  1  0.73986900  0.13559500  0.88948100  1
  Cr  Cr8  1  0.00000000  0.00000000  0.00000000  1
  Cr  Cr9  1  0.00000000  0.00000000  0.50000000  1
  Cr  Cr10  1  0.50000000  0.50000000  0.00000000  1
  Cr  Cr11  1  0.50000000  0.50000000  0.50000000  1
  H  H12  1  0.99191550  0.66764650  0.61738600  1
  H  H13  1  0.12362900  0.23682800  0.97207500  1
  H  H14  1  0.96184700  0.23911900  0.63910800  1
  H  H15  1  0.90605550  0.65604050  0.50404400  1
  H  H16  1  0.09394450  0.65604050  0.99595600  1
  H  H17  1  0.03815300  0.23911900  0.86089200  1
  H  H18  1  0.87637100  0.23682800  0.52792500  1
  H  H19  1  0.00808450  0.66764650  0.88261400  1
  H  H20  1  0.99191550  0.33235350  0.11738600  1
  H  H21  1  0.12362900  0.76317200  0.47207500  1
  H  H22  1  0.96184700  0.76088100  0.13910800  1
  H  H23  1  0.90605550  0.34395950  0.00404400  1
  H  H24  1  0.09394450  0.34395950  0.49595600  1
  H  H25  1  0.03815300  0.76088100  0.36089200  1
  H  H26  1  0.87637100  0.76317200  0.02792500  1
  H  H27  1  0.00808450  0.33235350  0.38261400  1
  H  H28  1  0.49191550  0.16764650  0.61738600  1
  H  H29  1  0.62362900  0.73682800  0.97207500  1
  H  H30  1  0.46184700  0.73911900  0.63910800  1
  H  H31  1  0.40605550  0.15604050  0.50404400  1
  H  H32  1  0.59394450  0.15604050  0.99595600  1
  H  H33  1  0.53815300  0.73911900  0.86089200  1
  H  H34  1  0.37637100  0.73682800  0.52792500  1
  H  H35  1  0.50808450  0.16764650  0.88261400  1
  H  H36  1  0.49191550  0.83235350  0.11738600  1
  H  H37  1  0.62362900  0.26317200  0.47207500  1
  H  H38  1  0.46184700  0.26088100  0.13910800  1
  H  H39  1  0.40605550  0.84395950  0.00404400  1
  H  H40  1  0.59394450  0.84395950  0.49595600  1
  H  H41  1  0.53815300  0.26088100  0.36089200  1
  H  H42  1  0.37637100  0.26317200  0.02792500  1
  H  H43  1  0.50808450  0.83235350  0.38261400  1
  Cl  Cl44  1  0.86204850  0.99363650  0.34227400  1
  Cl  Cl45  1  0.71658500  0.01553500  0.04177200  1
  Cl  Cl46  1  0.78341500  0.51553500  0.45822800  1
  Cl  Cl47  1  0.00000000  0.49161700  0.75000000  1
  Cl  Cl48  1  0.63795150  0.49363650  0.15772600  1
  Cl  Cl49  1  0.36204850  0.50636350  0.84227400  1
  Cl  Cl50  1  0.00000000  0.50838300  0.25000000  1
  Cl  Cl51  1  0.21658500  0.48446500  0.54177200  1
  Cl  Cl52  1  0.28341500  0.98446500  0.95822800  1
  Cl  Cl53  1  0.13795150  0.00636350  0.65772600  1
  Cl  Cl54  1  0.36204850  0.49363650  0.34227400  1
  Cl  Cl55  1  0.21658500  0.51553500  0.04177200  1
  Cl  Cl56  1  0.28341500  0.01553500  0.45822800  1
  Cl  Cl57  1  0.50000000  0.99161700  0.75000000  1
  Cl  Cl58  1  0.13795150  0.99363650  0.15772600  1
  Cl  Cl59  1  0.86204850  0.00636350  0.84227400  1
  Cl  Cl60  1  0.50000000  0.00838300  0.25000000  1
  Cl  Cl61  1  0.71658500  0.98446500  0.54177200  1
  Cl  Cl62  1  0.78341500  0.48446500  0.95822800  1
  Cl  Cl63  1  0.63795150  0.50636350  0.65772600  1
  O  O64  1  0.97033200  0.71474300  0.54135600  1
  O  O65  1  0.92770350  0.14724650  0.57605600  1
  O  O66  1  0.07229650  0.14724650  0.92394400  1
  O  O67  1  0.02966800  0.71474300  0.95864400  1
  O  O68  1  0.97033200  0.28525700  0.04135600  1
  O  O69  1  0.92770350  0.85275350  0.07605600  1
  O  O70  1  0.07229650  0.85275350  0.42394400  1
  O  O71  1  0.02966800  0.28525700  0.45864400  1
  O  O72  1  0.47033200  0.21474300  0.54135600  1
  O  O73  1  0.42770350  0.64724650  0.57605600  1
  O  O74  1  0.57229650  0.64724650  0.92394400  1
  O  O75  1  0.52966800  0.21474300  0.95864400  1
  O  O76  1  0.47033200  0.78525700  0.04135600  1
  O  O77  1  0.42770350  0.35275350  0.07605600  1
  O  O78  1  0.57229650  0.35275350  0.42394400  1
  O  O79  1  0.52966800  0.78525700  0.45864400  1
