# generated using pymatgen
data_Li2TiMn3O8
_symmetry_space_group_name_H-M   'P 1'
_cell_length_a   5.80688400
_cell_length_b   10.52324000
_cell_length_c   9.53965300
_cell_angle_alpha   90.00000000
_cell_angle_beta   90.00000000
_cell_angle_gamma   90.00000000
_symmetry_Int_Tables_number   1
_chemical_formula_structural   Li2TiMn3O8
_chemical_formula_sum   'Li8 Ti4 Mn12 O32'
_cell_volume   582.94180800
_cell_formula_units_Z   4
loop_
 _symmetry_equiv_pos_site_id
 _symmetry_equiv_pos_as_xyz
  1  'x, y, z'
loop_
 _atom_site_type_symbol
 _atom_site_label
 _atom_site_symmetry_multiplicity
 _atom_site_fract_x
 _atom_site_fract_y
 _atom_site_fract_z
 _atom_site_occupancy
  Li  Li0  1  0.50000000  0.34401200  0.89717000  1
  Li  Li1  1  0.50000000  0.00654000  0.99376300  1
  Li  Li2  1  0.00000000  0.49346000  0.49376300  1
  Li  Li3  1  0.00000000  0.15598800  0.39717000  1
  Li  Li4  1  0.00000000  0.84401200  0.89717000  1
  Li  Li5  1  0.00000000  0.50654000  0.99376300  1
  Li  Li6  1  0.50000000  0.99346000  0.49376300  1
  Li  Li7  1  0.50000000  0.65598800  0.39717000  1
  Ti  Ti8  1  0.50000000  0.31883600  0.49349900  1
  Ti  Ti9  1  0.00000000  0.18116400  0.99349900  1
  Ti  Ti10  1  0.00000000  0.81883600  0.49349900  1
  Ti  Ti11  1  0.50000000  0.68116400  0.99349900  1
  Mn  Mn12  1  0.74563250  0.41613350  0.21591200  1
  Mn  Mn13  1  0.25436750  0.41613350  0.21591200  1
  Mn  Mn14  1  0.50000000  0.17277300  0.21424400  1
  Mn  Mn15  1  0.00000000  0.32722700  0.71424400  1
  Mn  Mn16  1  0.24563250  0.08386650  0.71591200  1
  Mn  Mn17  1  0.75436750  0.08386650  0.71591200  1
  Mn  Mn18  1  0.24563250  0.91613350  0.21591200  1
  Mn  Mn19  1  0.75436750  0.91613350  0.21591200  1
  Mn  Mn20  1  0.00000000  0.67277300  0.21424400  1
  Mn  Mn21  1  0.50000000  0.82722700  0.71424400  1
  Mn  Mn22  1  0.74563250  0.58386650  0.71591200  1
  Mn  Mn23  1  0.25436750  0.58386650  0.71591200  1
  O  O24  1  0.75452650  0.39635750  0.58821000  1
  O  O25  1  0.50000000  0.47145100  0.34236900  1
  O  O26  1  0.50000000  0.33202900  0.11290700  1
  O  O27  1  0.50000000  0.00746100  0.30350600  1
  O  O28  1  0.00000000  0.49253900  0.80350600  1
  O  O29  1  0.24547350  0.39635750  0.58821000  1
  O  O30  1  0.71358500  0.24286000  0.34383800  1
  O  O31  1  0.28641500  0.24286000  0.34383800  1
  O  O32  1  0.00000000  0.34475000  0.09914700  1
  O  O33  1  0.50000000  0.15525000  0.59914700  1
  O  O34  1  0.21358500  0.25714000  0.84383800  1
  O  O35  1  0.78641500  0.25714000  0.84383800  1
  O  O36  1  0.00000000  0.16797100  0.61290700  1
  O  O37  1  0.25452650  0.10364250  0.08821000  1
  O  O38  1  0.00000000  0.02854900  0.84236900  1
  O  O39  1  0.74547350  0.10364250  0.08821000  1
  O  O40  1  0.25452650  0.89635750  0.58821000  1
  O  O41  1  0.00000000  0.97145100  0.34236900  1
  O  O42  1  0.00000000  0.83202900  0.11290700  1
  O  O43  1  0.00000000  0.50746100  0.30350600  1
  O  O44  1  0.50000000  0.99253900  0.80350600  1
  O  O45  1  0.74547350  0.89635750  0.58821000  1
  O  O46  1  0.21358500  0.74286000  0.34383800  1
  O  O47  1  0.78641500  0.74286000  0.34383800  1
  O  O48  1  0.50000000  0.84475000  0.09914700  1
  O  O49  1  0.00000000  0.65525000  0.59914700  1
  O  O50  1  0.71358500  0.75714000  0.84383800  1
  O  O51  1  0.28641500  0.75714000  0.84383800  1
  O  O52  1  0.50000000  0.66797100  0.61290700  1
  O  O53  1  0.75452650  0.60364250  0.08821000  1
  O  O54  1  0.50000000  0.52854900  0.84236900  1
  O  O55  1  0.24547350  0.60364250  0.08821000  1
