# generated using pymatgen
data_LiMnVO4
_symmetry_space_group_name_H-M   'P 1'
_cell_length_a   6.08573950
_cell_length_b   6.08573950
_cell_length_c   8.35907300
_cell_angle_alpha   90.00000000
_cell_angle_beta   90.00000000
_cell_angle_gamma   90.00000000
_symmetry_Int_Tables_number   1
_chemical_formula_structural   LiMnVO4
_chemical_formula_sum   'Li4 Mn4 V4 O16'
_cell_volume   309.58851087
_cell_formula_units_Z   4
loop_
 _symmetry_equiv_pos_site_id
 _symmetry_equiv_pos_as_xyz
  1  'x, y, z'
loop_
 _atom_site_type_symbol
 _atom_site_label
 _atom_site_symmetry_multiplicity
 _atom_site_fract_x
 _atom_site_fract_y
 _atom_site_fract_z
 _atom_site_occupancy
  Li  Li0  1  0.50000000  0.75015300  0.00000000  1
  Li  Li1  1  0.50000000  0.24984700  0.50000000  1
  Li  Li2  1  0.75015300  0.50000000  0.25000000  1
  Li  Li3  1  0.24984700  0.50000000  0.75000000  1
  Mn  Mn4  1  0.75374450  0.75374450  0.62500000  1
  Mn  Mn5  1  0.75374450  0.24625550  0.87500000  1
  Mn  Mn6  1  0.24625550  0.75374450  0.37500000  1
  Mn  Mn7  1  0.24625550  0.24625550  0.12500000  1
  V  V8  1  0.00000000  0.27370800  0.50000000  1
  V  V9  1  0.27370800  0.00000000  0.75000000  1
  V  V10  1  0.72629200  0.00000000  0.25000000  1
  V  V11  1  0.00000000  0.72629200  0.00000000  1
  O  O12  1  0.54158800  0.77330800  0.25812200  1
  O  O13  1  0.54158800  0.22669200  0.24187800  1
  O  O14  1  0.77330800  0.54158800  0.99187800  1
  O  O15  1  0.77330800  0.45841200  0.50812200  1
  O  O16  1  0.22669200  0.54158800  0.00812200  1
  O  O17  1  0.22669200  0.45841200  0.49187800  1
  O  O18  1  0.45841200  0.77330800  0.74187800  1
  O  O19  1  0.45841200  0.22669200  0.75812200  1
  O  O20  1  0.77179800  0.98461200  0.02550500  1
  O  O21  1  0.77179800  0.01538800  0.47449500  1
  O  O22  1  0.98461200  0.77179800  0.22449500  1
  O  O23  1  0.98461200  0.22820200  0.27550500  1
  O  O24  1  0.01538800  0.77179800  0.77550500  1
  O  O25  1  0.01538800  0.22820200  0.72449500  1
  O  O26  1  0.22820200  0.01538800  0.52550500  1
  O  O27  1  0.22820200  0.98461200  0.97449500  1
