# generated using pymatgen
data_LiV2F7
_symmetry_space_group_name_H-M   'P 1'
_cell_length_a   7.37833800
_cell_length_b   6.49269200
_cell_length_c   10.64925904
_cell_angle_alpha   90.00000000
_cell_angle_beta   99.77746737
_cell_angle_gamma   90.00000000
_symmetry_Int_Tables_number   1
_chemical_formula_structural   LiV2F7
_chemical_formula_sum   'Li4 V8 F28'
_cell_volume   502.74556089
_cell_formula_units_Z   4
loop_
 _symmetry_equiv_pos_site_id
 _symmetry_equiv_pos_as_xyz
  1  'x, y, z'
loop_
 _atom_site_type_symbol
 _atom_site_label
 _atom_site_symmetry_multiplicity
 _atom_site_fract_x
 _atom_site_fract_y
 _atom_site_fract_z
 _atom_site_occupancy
  Li  Li0  1  0.95263800  0.31032400  0.01599200  1
  Li  Li1  1  0.95263800  0.68967600  0.51599200  1
  Li  Li2  1  0.45263800  0.81032400  0.01599200  1
  Li  Li3  1  0.45263800  0.18967600  0.51599200  1
  V  V4  1  0.22581350  0.50869550  0.25195700  1
  V  V5  1  0.22581350  0.49130450  0.75195700  1
  V  V6  1  0.77468800  0.50300400  0.25059700  1
  V  V7  1  0.77468800  0.49699600  0.75059700  1
  V  V8  1  0.72581350  0.00869550  0.25195700  1
  V  V9  1  0.72581350  0.99130450  0.75195700  1
  V  V10  1  0.27468800  0.00300400  0.25059700  1
  V  V11  1  0.27468800  0.99699600  0.75059700  1
  F  F12  1  0.18475450  0.24618450  0.13301300  1
  F  F13  1  0.75884800  0.75242900  0.36855300  1
  F  F14  1  0.99926950  0.03595550  0.74972400  1
  F  F15  1  0.80327900  0.25162900  0.36487500  1
  F  F16  1  0.97272500  0.53853200  0.13982300  1
  F  F17  1  0.75514300  0.24820100  0.13169900  1
  F  F18  1  0.02685950  0.53664650  0.36453900  1
  F  F19  1  0.97272500  0.46146800  0.63982300  1
  F  F20  1  0.75884800  0.24757100  0.86855300  1
  F  F21  1  0.02685950  0.46335350  0.86453900  1
  F  F22  1  0.18475450  0.75381550  0.63301300  1
  F  F23  1  0.99926950  0.96404450  0.24972400  1
  F  F24  1  0.75514300  0.75179900  0.63169900  1
  F  F25  1  0.80327900  0.74837100  0.86487500  1
  F  F26  1  0.68475450  0.74618450  0.13301300  1
  F  F27  1  0.25884800  0.25242900  0.36855300  1
  F  F28  1  0.49926950  0.53595550  0.74972400  1
  F  F29  1  0.30327900  0.75162900  0.36487500  1
  F  F30  1  0.47272500  0.03853200  0.13982300  1
  F  F31  1  0.25514300  0.74820100  0.13169900  1
  F  F32  1  0.52685950  0.03664650  0.36453900  1
  F  F33  1  0.47272500  0.96146800  0.63982300  1
  F  F34  1  0.25884800  0.74757100  0.86855300  1
  F  F35  1  0.52685950  0.96335350  0.86453900  1
  F  F36  1  0.68475450  0.25381550  0.63301300  1
  F  F37  1  0.49926950  0.46404450  0.24972400  1
  F  F38  1  0.25514300  0.25179900  0.63169900  1
  F  F39  1  0.30327900  0.24837100  0.86487500  1
