# generated using pymatgen
data_Ni(IO3)2
_symmetry_space_group_name_H-M   'P 1'
_cell_length_a   5.43522900
_cell_length_b   5.61410100
_cell_length_c   17.86165800
_cell_angle_alpha   90.00000000
_cell_angle_beta   90.00000000
_cell_angle_gamma   90.00000000
_symmetry_Int_Tables_number   1
_chemical_formula_structural   Ni(IO3)2
_chemical_formula_sum   'Ni4 I8 O24'
_cell_volume   545.02928480
_cell_formula_units_Z   4
loop_
 _symmetry_equiv_pos_site_id
 _symmetry_equiv_pos_as_xyz
  1  'x, y, z'
loop_
 _atom_site_type_symbol
 _atom_site_label
 _atom_site_symmetry_multiplicity
 _atom_site_fract_x
 _atom_site_fract_y
 _atom_site_fract_z
 _atom_site_occupancy
  Ni  Ni0  1  0.72062900  0.16695300  0.10706300  1
  Ni  Ni1  1  0.22062900  0.33304700  0.89293700  1
  Ni  Ni2  1  0.27937100  0.66695300  0.39293700  1
  Ni  Ni3  1  0.77937100  0.83304700  0.60706300  1
  I  I4  1  0.99091700  0.14592900  0.42372500  1
  I  I5  1  0.25763700  0.23495700  0.20271500  1
  I  I6  1  0.75763700  0.26504300  0.79728500  1
  I  I7  1  0.49091700  0.35407100  0.57627500  1
  I  I8  1  0.00908300  0.64592900  0.07627500  1
  I  I9  1  0.74236300  0.73495700  0.29728500  1
  I  I10  1  0.24236300  0.76504300  0.70271500  1
  I  I11  1  0.50908300  0.85407100  0.92372500  1
  O  O12  1  0.08649900  0.02187200  0.33004300  1
  O  O13  1  0.03517200  0.03233600  0.15556700  1
  O  O14  1  0.52061800  0.02376100  0.19992400  1
  O  O15  1  0.39463900  0.12029200  0.97217000  1
  O  O16  1  0.89117800  0.11328700  0.88028800  1
  O  O17  1  0.76226700  0.16104600  0.55322300  1
  O  O18  1  0.26226700  0.33895400  0.44677700  1
  O  O19  1  0.39117800  0.38671300  0.11971200  1
  O  O20  1  0.89463900  0.37970800  0.02783000  1
  O  O21  1  0.02061800  0.47623900  0.80007600  1
  O  O22  1  0.53517200  0.46766400  0.84443300  1
  O  O23  1  0.58649900  0.47812800  0.66995700  1
  O  O24  1  0.91350100  0.52187200  0.16995700  1
  O  O25  1  0.96482800  0.53233600  0.34443300  1
  O  O26  1  0.47938200  0.52376100  0.30007600  1
  O  O27  1  0.60536100  0.62029200  0.52783000  1
  O  O28  1  0.10882200  0.61328700  0.61971200  1
  O  O29  1  0.23773300  0.66104600  0.94677700  1
  O  O30  1  0.73773300  0.83895400  0.05322300  1
  O  O31  1  0.60882200  0.88671300  0.38028800  1
  O  O32  1  0.10536100  0.87970800  0.47217000  1
  O  O33  1  0.97938200  0.97623900  0.69992400  1
  O  O34  1  0.46482800  0.96766400  0.65556700  1
  O  O35  1  0.41350100  0.97812800  0.83004300  1
