# generated using pymatgen
data_BaLaBr5
_symmetry_space_group_name_H-M   'P 1'
_cell_length_a   7.65136800
_cell_length_b   10.89737400
_cell_length_c   11.82619200
_cell_angle_alpha   90.00000000
_cell_angle_beta   90.00000000
_cell_angle_gamma   90.00000000
_symmetry_Int_Tables_number   1
_chemical_formula_structural   BaLaBr5
_chemical_formula_sum   'Ba4 La4 Br20'
_cell_volume   986.06574496
_cell_formula_units_Z   4
loop_
 _symmetry_equiv_pos_site_id
 _symmetry_equiv_pos_as_xyz
  1  'x, y, z'
loop_
 _atom_site_type_symbol
 _atom_site_label
 _atom_site_symmetry_multiplicity
 _atom_site_fract_x
 _atom_site_fract_y
 _atom_site_fract_z
 _atom_site_occupancy
  Ba  Ba0  1  0.25000000  0.62625600  0.17293400  1
  Ba  Ba1  1  0.75000000  0.12625600  0.32706600  1
  Ba  Ba2  1  0.25000000  0.87374400  0.67293400  1
  Ba  Ba3  1  0.75000000  0.37374400  0.82706600  1
  La  La4  1  0.25000000  0.15145100  0.02951400  1
  La  La5  1  0.75000000  0.65145100  0.47048600  1
  La  La6  1  0.25000000  0.34854900  0.52951400  1
  La  La7  1  0.75000000  0.84854900  0.97048600  1
  Br  Br8  1  0.98107600  0.33832200  0.06119600  1
  Br  Br9  1  0.51892400  0.33832200  0.06119600  1
  Br  Br10  1  0.00052400  0.96306600  0.14452800  1
  Br  Br11  1  0.49947600  0.96306600  0.14452800  1
  Br  Br12  1  0.25000000  0.18863700  0.29428800  1
  Br  Br13  1  0.75000000  0.68863700  0.20571200  1
  Br  Br14  1  0.99947600  0.46306600  0.35547200  1
  Br  Br15  1  0.50052400  0.46306600  0.35547200  1
  Br  Br16  1  0.01892400  0.83832200  0.43880400  1
  Br  Br17  1  0.48107600  0.83832200  0.43880400  1
  Br  Br18  1  0.98107600  0.16167800  0.56119600  1
  Br  Br19  1  0.51892400  0.16167800  0.56119600  1
  Br  Br20  1  0.00052400  0.53693400  0.64452800  1
  Br  Br21  1  0.49947600  0.53693400  0.64452800  1
  Br  Br22  1  0.25000000  0.31136300  0.79428800  1
  Br  Br23  1  0.75000000  0.81136300  0.70571200  1
  Br  Br24  1  0.50052400  0.03693400  0.85547200  1
  Br  Br25  1  0.99947600  0.03693400  0.85547200  1
  Br  Br26  1  0.48107600  0.66167800  0.93880400  1
  Br  Br27  1  0.01892400  0.66167800  0.93880400  1
