# generated using pymatgen
data_Cr3SbO8
_symmetry_space_group_name_H-M   'P 1'
_cell_length_a   5.98303600
_cell_length_b   10.24987000
_cell_length_c   9.27766461
_cell_angle_alpha   90.00000000
_cell_angle_beta   91.40482739
_cell_angle_gamma   90.00000000
_symmetry_Int_Tables_number   1
_chemical_formula_structural   Cr3SbO8
_chemical_formula_sum   'Cr12 Sb4 O32'
_cell_volume   568.78493534
_cell_formula_units_Z   4
loop_
 _symmetry_equiv_pos_site_id
 _symmetry_equiv_pos_as_xyz
  1  'x, y, z'
loop_
 _atom_site_type_symbol
 _atom_site_label
 _atom_site_symmetry_multiplicity
 _atom_site_fract_x
 _atom_site_fract_y
 _atom_site_fract_z
 _atom_site_occupancy
  Cr  Cr0  1  0.25514350  0.91453850  0.78775500  1
  Cr  Cr1  1  0.74960150  0.91732450  0.79604200  1
  Cr  Cr2  1  0.49965950  0.67143550  0.78063800  1
  Cr  Cr3  1  0.49965950  0.32856450  0.28063800  1
  Cr  Cr4  1  0.25514350  0.08546150  0.28775500  1
  Cr  Cr5  1  0.74960150  0.08267550  0.29604200  1
  Cr  Cr6  1  0.75514350  0.41453850  0.78775500  1
  Cr  Cr7  1  0.24960150  0.41732450  0.79604200  1
  Cr  Cr8  1  0.99965950  0.17143550  0.78063800  1
  Cr  Cr9  1  0.99965950  0.82856450  0.28063800  1
  Cr  Cr10  1  0.75514350  0.58546150  0.28775500  1
  Cr  Cr11  1  0.24960150  0.58267550  0.29604200  1
  Sb  Sb12  1  0.49664800  0.83699100  0.50913200  1
  Sb  Sb13  1  0.49664800  0.16300900  0.00913200  1
  Sb  Sb14  1  0.99664800  0.33699100  0.50913200  1
  Sb  Sb15  1  0.99664800  0.66300900  0.00913200  1
  O  O16  1  0.24879850  0.91740350  0.40071100  1
  O  O17  1  0.50781650  0.97806050  0.66529100  1
  O  O18  1  0.50589000  0.82726300  0.89329900  1
  O  O19  1  0.49616300  0.50530000  0.70076300  1
  O  O20  1  0.49616300  0.49470000  0.20076300  1
  O  O21  1  0.74351150  0.91838950  0.39547700  1
  O  O22  1  0.28544550  0.75833650  0.65708800  1
  O  O23  1  0.71735100  0.76308700  0.66218000  1
  O  O24  1  0.49387900  0.33025000  0.89376200  1
  O  O25  1  0.49387900  0.66975000  0.39376200  1
  O  O26  1  0.28544550  0.24166350  0.15708800  1
  O  O27  1  0.71735100  0.23691300  0.16218000  1
  O  O28  1  0.50589000  0.17273700  0.39329900  1
  O  O29  1  0.24879850  0.08259650  0.90071100  1
  O  O30  1  0.50781650  0.02193950  0.16529100  1
  O  O31  1  0.74351150  0.08161050  0.89547700  1
  O  O32  1  0.74879850  0.41740350  0.40071100  1
  O  O33  1  0.00781650  0.47806050  0.66529100  1
  O  O34  1  0.00589000  0.32726300  0.89329900  1
  O  O35  1  0.99616300  0.00530000  0.70076300  1
  O  O36  1  0.99616300  0.99470000  0.20076300  1
  O  O37  1  0.24351150  0.41838950  0.39547700  1
  O  O38  1  0.78544550  0.25833650  0.65708800  1
  O  O39  1  0.21735100  0.26308700  0.66218000  1
  O  O40  1  0.99387900  0.83025000  0.89376200  1
  O  O41  1  0.99387900  0.16975000  0.39376200  1
  O  O42  1  0.78544550  0.74166350  0.15708800  1
  O  O43  1  0.21735100  0.73691300  0.16218000  1
  O  O44  1  0.00589000  0.67273700  0.39329900  1
  O  O45  1  0.74879850  0.58259650  0.90071100  1
  O  O46  1  0.00781650  0.52193950  0.16529100  1
  O  O47  1  0.24351150  0.58161050  0.89547700  1
