# generated using pymatgen
data_TaIn3O7
_symmetry_space_group_name_H-M   'P 1'
_cell_length_a   7.51623800
_cell_length_b   10.43610800
_cell_length_c   7.31652500
_cell_angle_alpha   90.00000000
_cell_angle_beta   90.00000000
_cell_angle_gamma   90.00000000
_symmetry_Int_Tables_number   1
_chemical_formula_structural   TaIn3O7
_chemical_formula_sum   'Ta4 In12 O28'
_cell_volume   573.91020760
_cell_formula_units_Z   4
loop_
 _symmetry_equiv_pos_site_id
 _symmetry_equiv_pos_as_xyz
  1  'x, y, z'
loop_
 _atom_site_type_symbol
 _atom_site_label
 _atom_site_symmetry_multiplicity
 _atom_site_fract_x
 _atom_site_fract_y
 _atom_site_fract_z
 _atom_site_occupancy
  Ta  Ta0  1  0.00964800  0.00000000  0.50000000  1
  Ta  Ta1  1  0.99035200  0.00000000  0.00000000  1
  Ta  Ta2  1  0.50964800  0.50000000  0.50000000  1
  Ta  Ta3  1  0.49035200  0.50000000  0.00000000  1
  In  In4  1  0.23989850  0.76117450  0.25592500  1
  In  In5  1  0.76010150  0.76117450  0.24407500  1
  In  In6  1  0.45514200  0.00000000  0.00000000  1
  In  In7  1  0.54485800  0.00000000  0.50000000  1
  In  In8  1  0.76010150  0.23882550  0.75592500  1
  In  In9  1  0.23989850  0.23882550  0.74407500  1
  In  In10  1  0.73989850  0.26117450  0.25592500  1
  In  In11  1  0.26010150  0.26117450  0.24407500  1
  In  In12  1  0.95514200  0.50000000  0.00000000  1
  In  In13  1  0.04485800  0.50000000  0.50000000  1
  In  In14  1  0.26010150  0.73882550  0.75592500  1
  In  In15  1  0.73989850  0.73882550  0.74407500  1
  O  O16  1  0.50000000  0.55602100  0.75000000  1
  O  O17  1  0.50000000  0.85752900  0.75000000  1
  O  O18  1  0.18278300  0.86507100  0.53332100  1
  O  O19  1  0.81721700  0.86507100  0.96667900  1
  O  O20  1  0.50000000  0.87252000  0.25000000  1
  O  O21  1  0.79418450  0.87445850  0.51931500  1
  O  O22  1  0.20581550  0.87445850  0.98068500  1
  O  O23  1  0.20581550  0.12554150  0.01931500  1
  O  O24  1  0.79418450  0.12554150  0.48068500  1
  O  O25  1  0.50000000  0.12748000  0.75000000  1
  O  O26  1  0.81721700  0.13492900  0.03332100  1
  O  O27  1  0.18278300  0.13492900  0.46667900  1
  O  O28  1  0.50000000  0.14247100  0.25000000  1
  O  O29  1  0.50000000  0.44397900  0.25000000  1
  O  O30  1  0.00000000  0.05602100  0.75000000  1
  O  O31  1  0.00000000  0.35752900  0.75000000  1
  O  O32  1  0.68278300  0.36507100  0.53332100  1
  O  O33  1  0.31721700  0.36507100  0.96667900  1
  O  O34  1  0.00000000  0.37252000  0.25000000  1
  O  O35  1  0.29418450  0.37445850  0.51931500  1
  O  O36  1  0.70581550  0.37445850  0.98068500  1
  O  O37  1  0.70581550  0.62554150  0.01931500  1
  O  O38  1  0.29418450  0.62554150  0.48068500  1
  O  O39  1  0.00000000  0.62748000  0.75000000  1
  O  O40  1  0.31721700  0.63492900  0.03332100  1
  O  O41  1  0.68278300  0.63492900  0.46667900  1
  O  O42  1  0.00000000  0.64247100  0.25000000  1
  O  O43  1  0.00000000  0.94397900  0.25000000  1
