# generated using pymatgen
data_Li4V3OF11
_symmetry_space_group_name_H-M   'P 1'
_cell_length_a   5.59978691
_cell_length_b   6.20308057
_cell_length_c   6.42474462
_cell_angle_alpha   103.16998844
_cell_angle_beta   101.03191242
_cell_angle_gamma   97.56357365
_symmetry_Int_Tables_number   1
_chemical_formula_structural   Li4V3OF11
_chemical_formula_sum   'Li4 V3 O1 F11'
_cell_volume   209.66871687
_cell_formula_units_Z   1
loop_
 _symmetry_equiv_pos_site_id
 _symmetry_equiv_pos_as_xyz
  1  'x, y, z'
loop_
 _atom_site_type_symbol
 _atom_site_label
 _atom_site_symmetry_multiplicity
 _atom_site_fract_x
 _atom_site_fract_y
 _atom_site_fract_z
 _atom_site_occupancy
  Li  Li0  1  0.85578700  0.66261100  0.44780500  1
  Li  Li1  1  0.61483000  0.14494600  0.35963400  1
  Li  Li2  1  0.38353300  0.87148200  0.64315300  1
  Li  Li3  1  0.13913100  0.33282800  0.53925200  1
  V  V4  1  0.29830900  0.61908200  0.13728200  1
  V  V5  1  0.99151900  0.97509300  0.99885300  1
  V  V6  1  0.69952800  0.39545600  0.86794600  1
  O  O7  1  0.94377900  0.67392100  0.02664700  1
  F  F8  1  0.93479800  0.10861400  0.28644000  1
  F  F9  1  0.57179300  0.41418500  0.15549200  1
  F  F10  1  0.34071500  0.95255200  0.13109700  1
  F  F11  1  0.83360500  0.41710300  0.60469400  1
  F  F12  1  0.57142600  0.79877900  0.40292800  1
  F  F13  1  0.42294800  0.20754400  0.60078300  1
  F  F14  1  0.16697000  0.57622400  0.39669600  1
  F  F15  1  0.66315500  0.05630300  0.87323100  1
  F  F16  1  0.43106100  0.59437000  0.85173600  1
  F  F17  1  0.05860700  0.89579600  0.70557400  1
  F  F18  1  0.07850300  0.30311200  0.97075900  1
