# generated using pymatgen
data_FeOF
_symmetry_space_group_name_H-M   'P 1'
_cell_length_a   4.80310500
_cell_length_b   3.06422400
_cell_length_c   14.32928825
_cell_angle_alpha   90.00000000
_cell_angle_beta   92.69549304
_cell_angle_gamma   90.00000000
_symmetry_Int_Tables_number   1
_chemical_formula_structural   FeOF
_chemical_formula_sum   'Fe6 O6 F6'
_cell_volume   210.66211029
_cell_formula_units_Z   6
loop_
 _symmetry_equiv_pos_site_id
 _symmetry_equiv_pos_as_xyz
  1  'x, y, z'
loop_
 _atom_site_type_symbol
 _atom_site_label
 _atom_site_symmetry_multiplicity
 _atom_site_fract_x
 _atom_site_fract_y
 _atom_site_fract_z
 _atom_site_occupancy
  Fe  Fe0  1  0.00000000  0.00000000  0.00000000  1
  Fe  Fe1  1  0.96173800  0.00000000  0.66635700  1
  Fe  Fe2  1  0.03826200  0.00000000  0.33364300  1
  Fe  Fe3  1  0.40733300  0.50000000  0.83378300  1
  Fe  Fe4  1  0.50000000  0.50000000  0.50000000  1
  Fe  Fe5  1  0.59266700  0.50000000  0.16621700  1
  O  O6  1  0.82465600  0.50000000  0.06348700  1
  O  O7  1  0.74745500  0.00000000  0.23620800  1
  O  O8  1  0.68331500  0.00000000  0.56734100  1
  O  O9  1  0.31668500  0.00000000  0.43265900  1
  O  O10  1  0.25254500  0.00000000  0.76379200  1
  O  O11  1  0.17534400  0.50000000  0.93651300  1
  F  F12  1  0.76219400  0.50000000  0.73126900  1
  F  F13  1  0.83424200  0.50000000  0.39969000  1
  F  F14  1  0.66080800  0.00000000  0.89272400  1
  F  F15  1  0.33919200  0.00000000  0.10727600  1
  F  F16  1  0.16575800  0.50000000  0.60031000  1
  F  F17  1  0.23780600  0.50000000  0.26873100  1
