# generated using pymatgen
data_LaAlO3
_symmetry_space_group_name_H-M   'P 1'
_cell_length_a   7.35280500
_cell_length_b   7.92599950
_cell_length_c   8.31854328
_cell_angle_alpha   103.82212119
_cell_angle_beta   96.34129759
_cell_angle_gamma   89.67373902
_symmetry_Int_Tables_number   1
_chemical_formula_structural   LaAlO3
_chemical_formula_sum   'La6 Al6 O18'
_cell_volume   467.76447101
_cell_formula_units_Z   6
loop_
 _symmetry_equiv_pos_site_id
 _symmetry_equiv_pos_as_xyz
  1  'x, y, z'
loop_
 _atom_site_type_symbol
 _atom_site_label
 _atom_site_symmetry_multiplicity
 _atom_site_fract_x
 _atom_site_fract_y
 _atom_site_fract_z
 _atom_site_occupancy
  La  La0  1  0.97234600  0.24510000  0.98465700  1
  La  La1  1  0.02765400  0.75490000  0.01534300  1
  La  La2  1  0.26944800  0.42326100  0.69770400  1
  La  La3  1  0.26284500  0.91785500  0.68219900  1
  La  La4  1  0.73715500  0.08214500  0.31780100  1
  La  La5  1  0.73055200  0.57673900  0.30229600  1
  Al  Al6  1  0.55327700  0.73098900  0.90610400  1
  Al  Al7  1  0.76810200  0.39519300  0.68793800  1
  Al  Al8  1  0.76559700  0.95103100  0.68636600  1
  Al  Al9  1  0.23440300  0.04896900  0.31363400  1
  Al  Al10  1  0.23189800  0.60480700  0.31206200  1
  Al  Al11  1  0.44672300  0.26901100  0.09389600  1
  O  O12  1  0.29322900  0.22081500  0.90758800  1
  O  O13  1  0.30942100  0.72895900  0.89666000  1
  O  O14  1  0.97912100  0.47190000  0.81384100  1
  O  O15  1  0.58821200  0.51643000  0.78224700  1
  O  O16  1  0.75319000  0.17748200  0.70529100  1
  O  O17  1  0.58259600  0.87641800  0.77446600  1
  O  O18  1  0.97848500  0.93262300  0.80833100  1
  O  O19  1  0.23221500  0.14175500  0.52777400  1
  O  O20  1  0.22791200  0.61864300  0.52536400  1
  O  O21  1  0.77208800  0.38135700  0.47463600  1
  O  O22  1  0.76778500  0.85824500  0.47222600  1
  O  O23  1  0.02151500  0.06737700  0.19166900  1
  O  O24  1  0.41740400  0.12358200  0.22553400  1
  O  O25  1  0.24681000  0.82251800  0.29470900  1
  O  O26  1  0.41178800  0.48357000  0.21775300  1
  O  O27  1  0.02087900  0.52810000  0.18615900  1
  O  O28  1  0.69057900  0.27104100  0.10334000  1
  O  O29  1  0.70677100  0.77918500  0.09241200  1
