# generated using pymatgen
data_Ca(ClO3)2
_symmetry_space_group_name_H-M   'P 1'
_cell_length_a   11.42818800
_cell_length_b   7.57496800
_cell_length_c   7.88822518
_cell_angle_alpha   90.00000000
_cell_angle_beta   129.15740890
_cell_angle_gamma   90.00000000
_symmetry_Int_Tables_number   1
_chemical_formula_structural   Ca(ClO3)2
_chemical_formula_sum   'Ca4 Cl8 O24'
_cell_volume   529.50634695
_cell_formula_units_Z   4
loop_
 _symmetry_equiv_pos_site_id
 _symmetry_equiv_pos_as_xyz
  1  'x, y, z'
loop_
 _atom_site_type_symbol
 _atom_site_label
 _atom_site_symmetry_multiplicity
 _atom_site_fract_x
 _atom_site_fract_y
 _atom_site_fract_z
 _atom_site_occupancy
  Ca  Ca0  1  0.50000000  0.66298500  0.75000000  1
  Ca  Ca1  1  0.00000000  0.83701500  0.25000000  1
  Ca  Ca2  1  0.00000000  0.16298500  0.75000000  1
  Ca  Ca3  1  0.50000000  0.33701500  0.25000000  1
  Cl  Cl4  1  0.19737400  0.49687000  0.18843300  1
  Cl  Cl5  1  0.19737400  0.50313000  0.68843300  1
  Cl  Cl6  1  0.30262600  0.99687000  0.31156700  1
  Cl  Cl7  1  0.30262600  0.00313000  0.81156700  1
  Cl  Cl8  1  0.69737400  0.99687000  0.18843300  1
  Cl  Cl9  1  0.69737400  0.00313000  0.68843300  1
  Cl  Cl10  1  0.80262600  0.49687000  0.31156700  1
  Cl  Cl11  1  0.80262600  0.50313000  0.81156700  1
  O  O12  1  0.36298850  0.54995750  0.34873900  1
  O  O13  1  0.10684700  0.66262200  0.09230900  1
  O  O14  1  0.18816100  0.40401000  0.00931600  1
  O  O15  1  0.86298850  0.95004250  0.84873900  1
  O  O16  1  0.60684700  0.83737800  0.59230900  1
  O  O17  1  0.18816100  0.59599000  0.50931600  1
  O  O18  1  0.31183900  0.90401000  0.49068400  1
  O  O19  1  0.89315300  0.66262200  0.40769100  1
  O  O20  1  0.63701150  0.54995750  0.15126100  1
  O  O21  1  0.31183900  0.09599000  0.99068400  1
  O  O22  1  0.39315300  0.83737800  0.90769100  1
  O  O23  1  0.13701150  0.95004250  0.65126100  1
  O  O24  1  0.86298850  0.04995750  0.34873900  1
  O  O25  1  0.60684700  0.16262200  0.09230900  1
  O  O26  1  0.68816100  0.90401000  0.00931600  1
  O  O27  1  0.36298850  0.45004250  0.84873900  1
  O  O28  1  0.10684700  0.33737800  0.59230900  1
  O  O29  1  0.68816100  0.09599000  0.50931600  1
  O  O30  1  0.81183900  0.40401000  0.49068400  1
  O  O31  1  0.39315300  0.16262200  0.40769100  1
  O  O32  1  0.13701150  0.04995750  0.15126100  1
  O  O33  1  0.81183900  0.59599000  0.99068400  1
  O  O34  1  0.89315300  0.33737800  0.90769100  1
  O  O35  1  0.63701150  0.45004250  0.65126100  1
