# generated using pymatgen
data_CaH8(ClO2)2
_symmetry_space_group_name_H-M   'P 1'
_cell_length_a   9.03907400
_cell_length_b   10.26639000
_cell_length_c   12.90184130
_cell_angle_alpha   90.00000000
_cell_angle_beta   115.20426588
_cell_angle_gamma   90.00000000
_symmetry_Int_Tables_number   1
_chemical_formula_structural   CaH8(ClO2)2
_chemical_formula_sum   'Ca6 H48 Cl12 O24'
_cell_volume   1083.28755770
_cell_formula_units_Z   6
loop_
 _symmetry_equiv_pos_site_id
 _symmetry_equiv_pos_as_xyz
  1  'x, y, z'
loop_
 _atom_site_type_symbol
 _atom_site_label
 _atom_site_symmetry_multiplicity
 _atom_site_fract_x
 _atom_site_fract_y
 _atom_site_fract_z
 _atom_site_occupancy
  Ca  Ca0  1  0.00000000  0.50000000  0.50000000  1
  Ca  Ca1  1  0.00000000  0.00000000  0.00000000  1
  Ca  Ca2  1  0.73930600  0.45256900  0.86305700  1
  Ca  Ca3  1  0.26069400  0.95256900  0.63694300  1
  Ca  Ca4  1  0.26069400  0.54743100  0.13694300  1
  Ca  Ca5  1  0.73930600  0.04743100  0.36305700  1
  H  H6  1  0.83947900  0.65776200  0.72602800  1
  H  H7  1  0.16052100  0.15776200  0.77397200  1
  H  H8  1  0.16052100  0.34223800  0.27397200  1
  H  H9  1  0.83947900  0.84223800  0.22602800  1
  H  H10  1  0.94564600  0.68514700  0.85705800  1
  H  H11  1  0.05435400  0.18514700  0.64294200  1
  H  H12  1  0.05435400  0.31485300  0.14294200  1
  H  H13  1  0.94564600  0.81485300  0.35705800  1
  H  H14  1  0.45326800  0.47799200  0.61565400  1
  H  H15  1  0.54673200  0.97799200  0.88434600  1
  H  H16  1  0.54673200  0.52200800  0.38434600  1
  H  H17  1  0.45326800  0.02200800  0.11565400  1
  H  H18  1  0.60728500  0.55126400  0.62033200  1
  H  H19  1  0.39271500  0.05126400  0.87966800  1
  H  H20  1  0.39271500  0.44873600  0.37966800  1
  H  H21  1  0.60728500  0.94873600  0.12033200  1
  H  H22  1  0.43787000  0.56644600  0.88454900  1
  H  H23  1  0.56213000  0.06644600  0.61545100  1
  H  H24  1  0.56213000  0.43355400  0.11545100  1
  H  H25  1  0.43787000  0.93355400  0.38454900  1
  H  H26  1  0.57229000  0.67489700  0.93981500  1
  H  H27  1  0.42771000  0.17489700  0.56018500  1
  H  H28  1  0.42771000  0.32510300  0.06018500  1
  H  H29  1  0.57229000  0.82510300  0.43981500  1
  H  H30  1  0.80865700  0.32179300  0.66870600  1
  H  H31  1  0.19134300  0.82179300  0.83129400  1
  H  H32  1  0.19134300  0.67820700  0.33129400  1
  H  H33  1  0.80865700  0.17820700  0.16870600  1
  H  H34  1  0.80855000  0.21124900  0.75110400  1
  H  H35  1  0.19145000  0.71124900  0.74889600  1
  H  H36  1  0.19145000  0.78875100  0.24889600  1
  H  H37  1  0.80855000  0.28875100  0.25110400  1
  H  H38  1  0.38672900  0.35122700  0.78689900  1
  H  H39  1  0.61327100  0.85122700  0.71310100  1
  H  H40  1  0.61327100  0.64877300  0.21310100  1
  H  H41  1  0.38672900  0.14877300  0.28689900  1
  H  H42  1  0.49317000  0.22293200  0.81410100  1
  H  H43  1  0.50683000  0.72293200  0.68589900  1
  H  H44  1  0.50683000  0.77706800  0.18589900  1
  H  H45  1  0.49317000  0.27706800  0.31410100  1
  H  H46  1  0.88856200  0.54229100  0.11858800  1
  H  H47  1  0.11143800  0.04229100  0.38141200  1
  H  H48  1  0.11143800  0.45770900  0.88141200  1
  H  H49  1  0.88856200  0.95770900  0.61858800  1
  H  H50  1  0.88589500  0.65992200  0.04347000  1
  H  H51  1  0.11410500  0.15992200  0.45653000  1
  H  H52  1  0.11410500  0.34007800  0.95653000  1
  H  H53  1  0.88589500  0.84007800  0.54347000  1
  Cl  Cl54  1  0.17547200  0.49742300  0.73749000  1
  Cl  Cl55  1  0.82452800  0.99742300  0.76251000  1
  Cl  Cl56  1  0.82452800  0.50257700  0.26251000  1
  Cl  Cl57  1  0.17547200  0.00257700  0.23749000  1
  Cl  Cl58  1  0.24783500  0.35925600  0.47162300  1
  Cl  Cl59  1  0.75216500  0.85925600  0.02837700  1
  Cl  Cl60  1  0.75216500  0.64074400  0.52837700  1
  Cl  Cl61  1  0.24783500  0.14074400  0.97162300  1
  Cl  Cl62  1  0.84635500  0.27481800  0.51250500  1
  Cl  Cl63  1  0.15364500  0.77481800  0.98749500  1
  Cl  Cl64  1  0.15364500  0.72518200  0.48749500  1
  Cl  Cl65  1  0.84635500  0.22518200  0.01250500  1
  O  O66  1  0.84593200  0.64035600  0.80269700  1
  O  O67  1  0.15406800  0.14035600  0.69730300  1
  O  O68  1  0.15406800  0.35964400  0.19730300  1
  O  O69  1  0.84593200  0.85964400  0.30269700  1
  O  O70  1  0.54561500  0.53276100  0.66568300  1
  O  O71  1  0.45438500  0.03276100  0.83431700  1
  O  O72  1  0.45438500  0.46723900  0.33431700  1
  O  O73  1  0.54561500  0.96723900  0.16568300  1
  O  O74  1  0.55426400  0.58442400  0.91292400  1
  O  O75  1  0.44573600  0.08442400  0.58707600  1
  O  O76  1  0.44573600  0.41557600  0.08707600  1
  O  O77  1  0.55426400  0.91557600  0.41292400  1
  O  O78  1  0.79945100  0.30664100  0.74084600  1
  O  O79  1  0.20054900  0.80664100  0.75915400  1
  O  O80  1  0.20054900  0.69335900  0.25915400  1
  O  O81  1  0.79945100  0.19335900  0.24084600  1
  O  O82  1  0.49913200  0.31866900  0.81650000  1
  O  O83  1  0.50086800  0.81866900  0.68350000  1
  O  O84  1  0.50086800  0.68133100  0.18350000  1
  O  O85  1  0.49913200  0.18133100  0.31650000  1
  O  O86  1  0.91062800  0.56611700  0.05198000  1
  O  O87  1  0.08937200  0.06611700  0.44802000  1
  O  O88  1  0.08937200  0.43388300  0.94802000  1
  O  O89  1  0.91062800  0.93388300  0.55198000  1
