# generated using pymatgen
data_Li2VO2F
_symmetry_space_group_name_H-M   'P 1'
_cell_length_a   13.07346664
_cell_length_b   2.94359573
_cell_length_c   5.93166688
_cell_angle_alpha   90.00000000
_cell_angle_beta   103.15730388
_cell_angle_gamma   90.00000000
_symmetry_Int_Tables_number   1
_chemical_formula_structural   Li2VO2F
_chemical_formula_sum   'Li8 V4 O8 F4'
_cell_volume   222.27602107
_cell_formula_units_Z   4
loop_
 _symmetry_equiv_pos_site_id
 _symmetry_equiv_pos_as_xyz
  1  'x, y, z'
loop_
 _atom_site_type_symbol
 _atom_site_label
 _atom_site_symmetry_multiplicity
 _atom_site_fract_x
 _atom_site_fract_y
 _atom_site_fract_z
 _atom_site_occupancy
  Li  Li0  1  0.50000000  0.00000000  0.00000000  1
  Li  Li1  1  0.50000000  0.00000000  0.50000000  1
  Li  Li2  1  0.83257700  0.00000000  0.15563300  1
  Li  Li3  1  0.66742300  0.50000000  0.84436700  1
  Li  Li4  1  0.00000000  0.50000000  0.00000000  1
  Li  Li5  1  0.00000000  0.50000000  0.50000000  1
  Li  Li6  1  0.33257700  0.50000000  0.15563300  1
  Li  Li7  1  0.16742300  0.00000000  0.84436700  1
  V  V8  1  0.67040250  0.50000000  0.32857200  1
  V  V9  1  0.82959750  0.00000000  0.67142800  1
  V  V10  1  0.17040250  0.00000000  0.32857200  1
  V  V11  1  0.32959750  0.50000000  0.67142800  1
  O  O12  1  0.33768300  0.00000000  0.90195400  1
  O  O13  1  0.66231700  0.00000000  0.09804600  1
  O  O14  1  0.83292500  0.50000000  0.43105100  1
  O  O15  1  0.66707500  0.00000000  0.56894900  1
  O  O16  1  0.83768300  0.50000000  0.90195400  1
  O  O17  1  0.16231700  0.50000000  0.09804600  1
  O  O18  1  0.33292500  0.00000000  0.43105100  1
  O  O19  1  0.16707500  0.50000000  0.56894900  1
  F  F20  1  0.49789700  0.50000000  0.74539600  1
  F  F21  1  0.50210300  0.50000000  0.25460400  1
  F  F22  1  0.99789700  0.00000000  0.74539600  1
  F  F23  1  0.00210300  0.00000000  0.25460400  1
