# generated using pymatgen
data_Ba2YI7
_symmetry_space_group_name_H-M   'P 1'
_cell_length_a   21.72020200
_cell_length_b   14.59117000
_cell_length_c   13.59048029
_cell_angle_alpha   90.00000000
_cell_angle_beta   121.97058317
_cell_angle_gamma   90.00000000
_symmetry_Int_Tables_number   1
_chemical_formula_structural   Ba2YI7
_chemical_formula_sum   'Ba16 Y8 I56'
_cell_volume   3653.83151261
_cell_formula_units_Z   8
loop_
 _symmetry_equiv_pos_site_id
 _symmetry_equiv_pos_as_xyz
  1  'x, y, z'
loop_
 _atom_site_type_symbol
 _atom_site_label
 _atom_site_symmetry_multiplicity
 _atom_site_fract_x
 _atom_site_fract_y
 _atom_site_fract_z
 _atom_site_occupancy
  Ba  Ba0  1  0.07625300  0.81953500  0.54727600  1
  Ba  Ba1  1  0.88059050  0.55997150  0.52246000  1
  Ba  Ba2  1  0.88059050  0.44002850  0.02246000  1
  Ba  Ba3  1  0.92374700  0.81953500  0.95272400  1
  Ba  Ba4  1  0.07625300  0.18046500  0.04727600  1
  Ba  Ba5  1  0.11940950  0.55997150  0.97754000  1
  Ba  Ba6  1  0.11940950  0.44002850  0.47754000  1
  Ba  Ba7  1  0.92374700  0.18046500  0.45272400  1
  Ba  Ba8  1  0.57625300  0.31953500  0.54727600  1
  Ba  Ba9  1  0.38059050  0.05997150  0.52246000  1
  Ba  Ba10  1  0.38059050  0.94002850  0.02246000  1
  Ba  Ba11  1  0.42374700  0.31953500  0.95272400  1
  Ba  Ba12  1  0.57625300  0.68046500  0.04727600  1
  Ba  Ba13  1  0.61940950  0.05997150  0.97754000  1
  Ba  Ba14  1  0.61940950  0.94002850  0.47754000  1
  Ba  Ba15  1  0.42374700  0.68046500  0.45272400  1
  Y  Y16  1  0.67196350  0.65914250  0.67151600  1
  Y  Y17  1  0.32803650  0.65914250  0.82848400  1
  Y  Y18  1  0.67196350  0.34085750  0.17151600  1
  Y  Y19  1  0.32803650  0.34085750  0.32848400  1
  Y  Y20  1  0.17196350  0.15914250  0.67151600  1
  Y  Y21  1  0.82803650  0.15914250  0.82848400  1
  Y  Y22  1  0.17196350  0.84085750  0.17151600  1
  Y  Y23  1  0.82803650  0.84085750  0.32848400  1
  I  I24  1  0.92323700  0.69679700  0.30638000  1
  I  I25  1  0.56492250  0.47193950  0.17837500  1
  I  I26  1  0.72979750  0.69443050  0.33903400  1
  I  I27  1  0.78976100  0.34217100  0.43130700  1
  I  I28  1  0.72372900  0.49792300  0.59840600  1
  I  I29  1  0.72979750  0.30556950  0.83903400  1
  I  I30  1  0.78976100  0.65782900  0.93130700  1
  I  I31  1  0.27627100  0.49792300  0.90159400  1
  I  I32  1  0.92724100  0.79961700  0.58496200  1
  I  I33  1  0.92323700  0.30320300  0.80638000  1
  I  I34  1  0.92724100  0.20038300  0.08496200  1
  I  I35  1  0.93420400  0.58284300  0.83662700  1
  I  I36  1  0.43507750  0.47193950  0.32162500  1
  I  I37  1  0.93420400  0.41715700  0.33662700  1
  I  I38  1  0.06579600  0.58284300  0.66337300  1
  I  I39  1  0.56492250  0.52806050  0.67837500  1
  I  I40  1  0.06579600  0.41715700  0.16337300  1
  I  I41  1  0.07275900  0.79961700  0.91503800  1
  I  I42  1  0.07676300  0.69679700  0.19362000  1
  I  I43  1  0.07275900  0.20038300  0.41503800  1
  I  I44  1  0.72372900  0.50207700  0.09840600  1
  I  I45  1  0.21023900  0.34217100  0.06869300  1
  I  I46  1  0.27020250  0.69443050  0.16096600  1
  I  I47  1  0.27627100  0.50207700  0.40159400  1
  I  I48  1  0.21023900  0.65782900  0.56869300  1
  I  I49  1  0.27020250  0.30556950  0.66096600  1
  I  I50  1  0.43507750  0.52806050  0.82162500  1
  I  I51  1  0.07676300  0.30320300  0.69362000  1
  I  I52  1  0.42323700  0.19679700  0.30638000  1
  I  I53  1  0.06492250  0.97193950  0.17837500  1
  I  I54  1  0.22979750  0.19443050  0.33903400  1
  I  I55  1  0.28976100  0.84217100  0.43130700  1
  I  I56  1  0.22372900  0.99792300  0.59840600  1
  I  I57  1  0.22979750  0.80556950  0.83903400  1
  I  I58  1  0.28976100  0.15782900  0.93130700  1
  I  I59  1  0.77627100  0.99792300  0.90159400  1
  I  I60  1  0.42724100  0.29961700  0.58496200  1
  I  I61  1  0.42323700  0.80320300  0.80638000  1
  I  I62  1  0.42724100  0.70038300  0.08496200  1
  I  I63  1  0.43420400  0.08284300  0.83662700  1
  I  I64  1  0.93507750  0.97193950  0.32162500  1
  I  I65  1  0.43420400  0.91715700  0.33662700  1
  I  I66  1  0.56579600  0.08284300  0.66337300  1
  I  I67  1  0.06492250  0.02806050  0.67837500  1
  I  I68  1  0.56579600  0.91715700  0.16337300  1
  I  I69  1  0.57275900  0.29961700  0.91503800  1
  I  I70  1  0.57676300  0.19679700  0.19362000  1
  I  I71  1  0.57275900  0.70038300  0.41503800  1
  I  I72  1  0.22372900  0.00207700  0.09840600  1
  I  I73  1  0.71023900  0.84217100  0.06869300  1
  I  I74  1  0.77020250  0.19443050  0.16096600  1
  I  I75  1  0.77627100  0.00207700  0.40159400  1
  I  I76  1  0.71023900  0.15782900  0.56869300  1
  I  I77  1  0.77020250  0.80556950  0.66096600  1
  I  I78  1  0.93507750  0.02806050  0.82162500  1
  I  I79  1  0.57676300  0.80320300  0.69362000  1
