# generated using pymatgen
data_Li3Ti2(PO4)3
_symmetry_space_group_name_H-M   'P 1'
_cell_length_a   11.85800600
_cell_length_b   12.52655400
_cell_length_c   6.45213488
_cell_angle_alpha   90.00000000
_cell_angle_beta   113.64870485
_cell_angle_gamma   90.00000000
_symmetry_Int_Tables_number   1
_chemical_formula_structural   Li3Ti2(PO4)3
_chemical_formula_sum   'Li12 Ti8 P12 O48'
_cell_volume   877.91538413
_cell_formula_units_Z   4
loop_
 _symmetry_equiv_pos_site_id
 _symmetry_equiv_pos_as_xyz
  1  'x, y, z'
loop_
 _atom_site_type_symbol
 _atom_site_label
 _atom_site_symmetry_multiplicity
 _atom_site_fract_x
 _atom_site_fract_y
 _atom_site_fract_z
 _atom_site_occupancy
  Li  Li0  1  0.50000000  0.50298800  0.75000000  1
  Li  Li1  1  0.50000000  0.21144600  0.75000000  1
  Li  Li2  1  0.50000000  0.00000000  0.50000000  1
  Li  Li3  1  0.50000000  0.78855400  0.25000000  1
  Li  Li4  1  0.50000000  0.49701200  0.25000000  1
  Li  Li5  1  0.50000000  0.00000000  0.00000000  1
  Li  Li6  1  0.00000000  0.00298800  0.75000000  1
  Li  Li7  1  0.00000000  0.71144600  0.75000000  1
  Li  Li8  1  0.00000000  0.50000000  0.50000000  1
  Li  Li9  1  0.00000000  0.28855400  0.25000000  1
  Li  Li10  1  0.00000000  0.99701200  0.25000000  1
  Li  Li11  1  0.00000000  0.50000000  0.00000000  1
  Ti  Ti12  1  0.21999450  0.83200150  0.62262900  1
  Ti  Ti13  1  0.21999450  0.16799850  0.12262900  1
  Ti  Ti14  1  0.78000550  0.83200150  0.87737100  1
  Ti  Ti15  1  0.78000550  0.16799850  0.37737100  1
  Ti  Ti16  1  0.71999450  0.33200150  0.62262900  1
  Ti  Ti17  1  0.71999450  0.66799850  0.12262900  1
  Ti  Ti18  1  0.28000550  0.33200150  0.87737100  1
  Ti  Ti19  1  0.28000550  0.66799850  0.37737100  1
  P  P20  1  0.23921450  0.09866150  0.61659000  1
  P  P21  1  0.23921450  0.90133850  0.11659000  1
  P  P22  1  0.50000000  0.78876400  0.75000000  1
  P  P23  1  0.50000000  0.21123600  0.25000000  1
  P  P24  1  0.76078550  0.09866150  0.88341000  1
  P  P25  1  0.76078550  0.90133850  0.38341000  1
  P  P26  1  0.73921450  0.59866150  0.61659000  1
  P  P27  1  0.73921450  0.40133850  0.11659000  1
  P  P28  1  0.00000000  0.28876400  0.75000000  1
  P  P29  1  0.00000000  0.71123600  0.25000000  1
  P  P30  1  0.26078550  0.59866150  0.88341000  1
  P  P31  1  0.26078550  0.40133850  0.38341000  1
  O  O32  1  0.17789900  0.83671100  0.89388900  1
  O  O33  1  0.15933550  0.99462650  0.58243200  1
  O  O34  1  0.22227500  0.16926800  0.80669500  1
  O  O35  1  0.17789900  0.16328900  0.39388900  1
  O  O36  1  0.15933550  0.00537350  0.08243200  1
  O  O37  1  0.22227500  0.83073200  0.30669500  1
  O  O38  1  0.37628900  0.07969900  0.68902600  1
  O  O39  1  0.39872350  0.86437050  0.75990600  1
  O  O40  1  0.37628900  0.92030100  0.18902600  1
  O  O41  1  0.45638800  0.71821600  0.53424000  1
  O  O42  1  0.54361200  0.71821600  0.96576000  1
  O  O43  1  0.39872350  0.13562950  0.25990600  1
  O  O44  1  0.60127650  0.86437050  0.74009400  1
  O  O45  1  0.45638800  0.28178400  0.03424000  1
  O  O46  1  0.54361200  0.28178400  0.46576000  1
  O  O47  1  0.62371100  0.07969900  0.81097400  1
  O  O48  1  0.60127650  0.13562950  0.24009400  1
  O  O49  1  0.62371100  0.92030100  0.31097400  1
  O  O50  1  0.77772500  0.16926800  0.69330500  1
  O  O51  1  0.84066450  0.99462650  0.91756800  1
  O  O52  1  0.82210100  0.83671100  0.60611100  1
  O  O53  1  0.77772500  0.83073200  0.19330500  1
  O  O54  1  0.84066450  0.00537350  0.41756800  1
  O  O55  1  0.82210100  0.16328900  0.10611100  1
  O  O56  1  0.67789900  0.33671100  0.89388900  1
  O  O57  1  0.65933550  0.49462650  0.58243200  1
  O  O58  1  0.72227500  0.66926800  0.80669500  1
  O  O59  1  0.67789900  0.66328900  0.39388900  1
  O  O60  1  0.65933550  0.50537350  0.08243200  1
  O  O61  1  0.72227500  0.33073200  0.30669500  1
  O  O62  1  0.87628900  0.57969900  0.68902600  1
  O  O63  1  0.89872350  0.36437050  0.75990600  1
  O  O64  1  0.87628900  0.42030100  0.18902600  1
  O  O65  1  0.95638800  0.21821600  0.53424000  1
  O  O66  1  0.04361200  0.21821600  0.96576000  1
  O  O67  1  0.89872350  0.63562950  0.25990600  1
  O  O68  1  0.10127650  0.36437050  0.74009400  1
  O  O69  1  0.95638800  0.78178400  0.03424000  1
  O  O70  1  0.04361200  0.78178400  0.46576000  1
  O  O71  1  0.12371100  0.57969900  0.81097400  1
  O  O72  1  0.10127650  0.63562950  0.24009400  1
  O  O73  1  0.12371100  0.42030100  0.31097400  1
  O  O74  1  0.27772500  0.66926800  0.69330500  1
  O  O75  1  0.34066450  0.49462650  0.91756800  1
  O  O76  1  0.32210100  0.33671100  0.60611100  1
  O  O77  1  0.27772500  0.33073200  0.19330500  1
  O  O78  1  0.34066450  0.50537350  0.41756800  1
  O  O79  1  0.32210100  0.66328900  0.10611100  1
