# generated using pymatgen
data_YTmO3
_symmetry_space_group_name_H-M   'P 1'
_cell_length_a   6.38378818
_cell_length_b   6.38378818
_cell_length_c   12.69969500
_cell_angle_alpha   90.00000000
_cell_angle_beta   90.00000000
_cell_angle_gamma   120.00000000
_symmetry_Int_Tables_number   1
_chemical_formula_structural   YTmO3
_chemical_formula_sum   'Y6 Tm6 O18'
_cell_volume   448.20929573
_cell_formula_units_Z   6
loop_
 _symmetry_equiv_pos_site_id
 _symmetry_equiv_pos_as_xyz
  1  'x, y, z'
loop_
 _atom_site_type_symbol
 _atom_site_label
 _atom_site_symmetry_multiplicity
 _atom_site_fract_x
 _atom_site_fract_y
 _atom_site_fract_z
 _atom_site_occupancy
  Y  Y0  1  0.66666667  0.33333333  0.73711900  1
  Y  Y1  1  0.00000000  0.00000000  0.77045200  1
  Y  Y2  1  0.00000000  0.00000000  0.27045200  1
  Y  Y3  1  0.66666667  0.33333333  0.23711900  1
  Y  Y4  1  0.33333333  0.66666667  0.23711900  1
  Y  Y5  1  0.33333333  0.66666667  0.73711900  1
  Tm  Tm6  1  0.66674850  0.66674850  0.00162000  1
  Tm  Tm7  1  0.33325150  0.33325150  0.50162000  1
  Tm  Tm8  1  0.33325150  0.00000000  0.00162000  1
  Tm  Tm9  1  0.66674850  0.00000000  0.50162000  1
  Tm  Tm10  1  0.00000000  0.66674850  0.50162000  1
  Tm  Tm11  1  0.00000000  0.33325150  0.00162000  1
  O  O12  1  0.69251350  0.69251350  0.17380100  1
  O  O13  1  0.63931250  0.63931250  0.83064300  1
  O  O14  1  0.36068750  0.36068750  0.33064300  1
  O  O15  1  0.30748650  0.30748650  0.67380100  1
  O  O16  1  0.66666667  0.33333333  0.52691000  1
  O  O17  1  0.00000000  0.00000000  0.97092900  1
  O  O18  1  0.00000000  0.00000000  0.47092900  1
  O  O19  1  0.66666667  0.33333333  0.02691000  1
  O  O20  1  0.30748650  0.00000000  0.17380100  1
  O  O21  1  0.36068750  0.00000000  0.83064300  1
  O  O22  1  0.00000000  0.69251350  0.67380100  1
  O  O23  1  0.63931250  0.00000000  0.33064300  1
  O  O24  1  0.69251350  0.00000000  0.67380100  1
  O  O25  1  0.00000000  0.63931250  0.33064300  1
  O  O26  1  0.33333333  0.66666667  0.02691000  1
  O  O27  1  0.33333333  0.66666667  0.52691000  1
  O  O28  1  0.00000000  0.36068750  0.83064300  1
  O  O29  1  0.00000000  0.30748650  0.17380100  1
