# generated using pymatgen
data_V4(OF3)3
_symmetry_space_group_name_H-M   'P 1'
_cell_length_a   5.22062400
_cell_length_b   5.41375154
_cell_length_c   17.54049534
_cell_angle_alpha   89.81645983
_cell_angle_beta   98.51470654
_cell_angle_gamma   118.75177830
_symmetry_Int_Tables_number   1
_chemical_formula_structural   V4(OF3)3
_chemical_formula_sum   'V8 O6 F18'
_cell_volume   428.51457391
_cell_formula_units_Z   2
loop_
 _symmetry_equiv_pos_site_id
 _symmetry_equiv_pos_as_xyz
  1  'x, y, z'
loop_
 _atom_site_type_symbol
 _atom_site_label
 _atom_site_symmetry_multiplicity
 _atom_site_fract_x
 _atom_site_fract_y
 _atom_site_fract_z
 _atom_site_occupancy
  V  V0  1  0.25034700  0.62439100  0.87504800  1
  V  V1  1  0.21682800  0.11786900  0.36988000  1
  V  V2  1  0.54283300  0.26126400  0.75057000  1
  V  V3  1  0.50961000  0.75444800  0.24978700  1
  V  V4  1  0.74760700  0.88954000  0.62718800  1
  V  V5  1  0.73118800  0.39167400  0.12702200  1
  V  V6  1  0.96201100  0.98628700  0.99846700  1
  V  V7  1  0.99884900  0.48782100  0.49288400  1
  O  O8  1  0.07871700  0.34234700  0.42103100  1
  O  O9  1  0.60265400  0.80231600  0.95912100  1
  O  O10  1  0.60684900  0.07214700  0.66719400  1
  O  O11  1  0.59803200  0.58062100  0.16671400  1
  O  O12  1  0.89996900  0.44884600  0.79169700  1
  O  O13  1  0.92244600  0.97229200  0.29680400  1
  F  F14  1  0.09018600  0.84864700  0.91505900  1
  F  F15  1  0.04024100  0.32339100  0.94132500  1
  F  F16  1  0.02765800  0.81757600  0.43937400  1
  F  F17  1  0.46411100  0.92902300  0.81093900  1
  F  F18  1  0.10164500  0.03275900  0.70773800  1
  F  F19  1  0.08324400  0.53290500  0.20891300  1
  F  F20  1  0.40781200  0.40113800  0.83372800  1
  F  F21  1  0.40822600  0.90935700  0.33671600  1
  F  F22  1  0.42376700  0.71916700  0.53885500  1
  F  F23  1  0.53580400  0.55135500  0.68382600  1
  F  F24  1  0.46846600  0.43444600  0.31391200  1
  F  F25  1  0.56753900  0.28610200  0.45814100  1
  F  F26  1  0.41060900  0.20461300  0.03932800  1
  F  F27  1  0.91658000  0.66655800  0.58076900  1
  F  F28  1  0.52471900  0.05864800  0.18512400  1
  F  F29  1  0.96890400  0.68678700  0.06194100  1
  F  F30  1  0.97574800  0.19425400  0.56341900  1
  F  F31  1  0.91680100  0.17141200  0.08748000  1
