# generated using pymatgen
data_RbTiPS5
_symmetry_space_group_name_H-M   'P 1'
_cell_length_a   18.59603200
_cell_length_b   7.16685600
_cell_length_c   16.08908688
_cell_angle_alpha   90.00000000
_cell_angle_beta   123.11540747
_cell_angle_gamma   90.00000000
_symmetry_Int_Tables_number   1
_chemical_formula_structural   RbTiPS5
_chemical_formula_sum   'Rb8 Ti8 P8 S40'
_cell_volume   1795.98383908
_cell_formula_units_Z   8
loop_
 _symmetry_equiv_pos_site_id
 _symmetry_equiv_pos_as_xyz
  1  'x, y, z'
loop_
 _atom_site_type_symbol
 _atom_site_label
 _atom_site_symmetry_multiplicity
 _atom_site_fract_x
 _atom_site_fract_y
 _atom_site_fract_z
 _atom_site_occupancy
  Rb  Rb0  1  0.33635600  0.00000000  0.13718700  1
  Rb  Rb1  1  0.79817000  0.50000000  0.64246900  1
  Rb  Rb2  1  0.20183000  0.50000000  0.35753100  1
  Rb  Rb3  1  0.66364400  0.00000000  0.86281300  1
  Rb  Rb4  1  0.83635600  0.50000000  0.13718700  1
  Rb  Rb5  1  0.29817000  0.00000000  0.64246900  1
  Rb  Rb6  1  0.70183000  0.00000000  0.35753100  1
  Rb  Rb7  1  0.16364400  0.50000000  0.86281300  1
  Ti  Ti8  1  0.00000000  0.27536700  0.00000000  1
  Ti  Ti9  1  0.00000000  0.72463300  0.00000000  1
  Ti  Ti10  1  0.50000000  0.71980900  0.50000000  1
  Ti  Ti11  1  0.50000000  0.28019100  0.50000000  1
  Ti  Ti12  1  0.50000000  0.77536700  0.00000000  1
  Ti  Ti13  1  0.50000000  0.22463300  0.00000000  1
  Ti  Ti14  1  0.00000000  0.21980900  0.50000000  1
  Ti  Ti15  1  0.00000000  0.78019100  0.50000000  1
  P  P16  1  0.66706400  0.00000000  0.59485600  1
  P  P17  1  0.42464600  0.50000000  0.09821500  1
  P  P18  1  0.57535400  0.50000000  0.90178500  1
  P  P19  1  0.33293600  0.00000000  0.40514400  1
  P  P20  1  0.16706400  0.50000000  0.59485600  1
  P  P21  1  0.92464600  0.00000000  0.09821500  1
  P  P22  1  0.07535400  0.00000000  0.90178500  1
  P  P23  1  0.83293600  0.50000000  0.40514400  1
  S  S24  1  0.32836900  0.50000000  0.11677300  1
  S  S25  1  0.64292750  0.76566250  0.65300500  1
  S  S26  1  0.64292750  0.23433750  0.65300500  1
  S  S27  1  0.52347600  0.50000000  0.41468900  1
  S  S28  1  0.55993900  0.00000000  0.44803500  1
  S  S29  1  0.89072800  0.00000000  0.95036000  1
  S  S30  1  0.50249800  0.73283600  0.15252400  1
  S  S31  1  0.50249800  0.26716400  0.15252400  1
  S  S32  1  0.89395900  0.50000000  0.91294700  1
  S  S33  1  0.77992300  0.00000000  0.61015500  1
  S  S34  1  0.22007700  0.00000000  0.38984500  1
  S  S35  1  0.10604100  0.50000000  0.08705300  1
  S  S36  1  0.49750200  0.26716400  0.84747600  1
  S  S37  1  0.49750200  0.73283600  0.84747600  1
  S  S38  1  0.10927200  0.00000000  0.04964000  1
  S  S39  1  0.44006100  0.00000000  0.55196500  1
  S  S40  1  0.47652400  0.50000000  0.58531100  1
  S  S41  1  0.35707250  0.76566250  0.34699500  1
  S  S42  1  0.35707250  0.23433750  0.34699500  1
  S  S43  1  0.67163100  0.50000000  0.88322700  1
  S  S44  1  0.82836900  0.00000000  0.11677300  1
  S  S45  1  0.14292750  0.26566250  0.65300500  1
  S  S46  1  0.14292750  0.73433750  0.65300500  1
  S  S47  1  0.02347600  0.00000000  0.41468900  1
  S  S48  1  0.05993900  0.50000000  0.44803500  1
  S  S49  1  0.39072800  0.50000000  0.95036000  1
  S  S50  1  0.00249800  0.23283600  0.15252400  1
  S  S51  1  0.00249800  0.76716400  0.15252400  1
  S  S52  1  0.39395900  0.00000000  0.91294700  1
  S  S53  1  0.27992300  0.50000000  0.61015500  1
  S  S54  1  0.72007700  0.50000000  0.38984500  1
  S  S55  1  0.60604100  0.00000000  0.08705300  1
  S  S56  1  0.99750200  0.76716400  0.84747600  1
  S  S57  1  0.99750200  0.23283600  0.84747600  1
  S  S58  1  0.60927200  0.50000000  0.04964000  1
  S  S59  1  0.94006100  0.50000000  0.55196500  1
  S  S60  1  0.97652400  0.00000000  0.58531100  1
  S  S61  1  0.85707250  0.26566250  0.34699500  1
  S  S62  1  0.85707250  0.73433750  0.34699500  1
  S  S63  1  0.17163100  0.00000000  0.88322700  1
