# generated using pymatgen
data_H6C3N4O3
_symmetry_space_group_name_H-M   'P 1'
_cell_length_a   7.41633800
_cell_length_b   7.20239200
_cell_length_c   21.85166105
_cell_angle_alpha   90.00000000
_cell_angle_beta   96.43337960
_cell_angle_gamma   90.00000000
_symmetry_Int_Tables_number   1
_chemical_formula_structural   H6C3N4O3
_chemical_formula_sum   'H48 C24 N32 O24'
_cell_volume   1159.86446443
_cell_formula_units_Z   8
loop_
 _symmetry_equiv_pos_site_id
 _symmetry_equiv_pos_as_xyz
  1  'x, y, z'
loop_
 _atom_site_type_symbol
 _atom_site_label
 _atom_site_symmetry_multiplicity
 _atom_site_fract_x
 _atom_site_fract_y
 _atom_site_fract_z
 _atom_site_occupancy
  H  H0  1  0.68623400  0.57604700  0.00082200  1
  H  H1  1  0.31376600  0.57604700  0.49917800  1
  H  H2  1  0.31376600  0.42395300  0.99917800  1
  H  H3  1  0.68623400  0.42395300  0.50082200  1
  H  H4  1  0.74337050  0.36757650  0.04187900  1
  H  H5  1  0.25662950  0.36757650  0.45812100  1
  H  H6  1  0.25662950  0.63242350  0.95812100  1
  H  H7  1  0.74337050  0.63242350  0.54187900  1
  H  H8  1  0.12593200  0.56868900  0.12932600  1
  H  H9  1  0.87406800  0.56868900  0.37067400  1
  H  H10  1  0.87406800  0.43131100  0.87067400  1
  H  H11  1  0.12593200  0.43131100  0.62932600  1
  H  H12  1  0.18635850  0.38236950  0.20290900  1
  H  H13  1  0.81364150  0.38236950  0.29709100  1
  H  H14  1  0.81364150  0.61763050  0.79709100  1
  H  H15  1  0.18635850  0.61763050  0.70290900  1
  H  H16  1  0.02803150  0.94267450  0.13701600  1
  H  H17  1  0.97196850  0.94267450  0.36298400  1
  H  H18  1  0.97196850  0.05732550  0.86298400  1
  H  H19  1  0.02803150  0.05732550  0.63701600  1
  H  H20  1  0.14114650  0.82066750  0.20114100  1
  H  H21  1  0.85885350  0.82066750  0.29885900  1
  H  H22  1  0.85885350  0.17933250  0.79885900  1
  H  H23  1  0.14114650  0.17933250  0.70114100  1
  H  H24  1  0.18623400  0.07604700  0.00082200  1
  H  H25  1  0.81376600  0.07604700  0.49917800  1
  H  H26  1  0.81376600  0.92395300  0.99917800  1
  H  H27  1  0.18623400  0.92395300  0.50082200  1
  H  H28  1  0.24337050  0.86757650  0.04187900  1
  H  H29  1  0.75662950  0.86757650  0.45812100  1
  H  H30  1  0.75662950  0.13242350  0.95812100  1
  H  H31  1  0.24337050  0.13242350  0.54187900  1
  H  H32  1  0.62593200  0.06868900  0.12932600  1
  H  H33  1  0.37406800  0.06868900  0.37067400  1
  H  H34  1  0.37406800  0.93131100  0.87067400  1
  H  H35  1  0.62593200  0.93131100  0.62932600  1
  H  H36  1  0.68635850  0.88236950  0.20290900  1
  H  H37  1  0.31364150  0.88236950  0.29709100  1
  H  H38  1  0.31364150  0.11763050  0.79709100  1
  H  H39  1  0.68635850  0.11763050  0.70290900  1
  H  H40  1  0.52803150  0.44267450  0.13701600  1
  H  H41  1  0.47196850  0.44267450  0.36298400  1
  H  H42  1  0.47196850  0.55732550  0.86298400  1
  H  H43  1  0.52803150  0.55732550  0.63701600  1
  H  H44  1  0.64114650  0.32066750  0.20114100  1
  H  H45  1  0.35885350  0.32066750  0.29885900  1
  H  H46  1  0.35885350  0.67933250  0.79885900  1
  H  H47  1  0.64114650  0.67933250  0.70114100  1
  C  C48  1  0.90820050  0.59172550  0.06444900  1
  C  C49  1  0.09179950  0.59172550  0.43555100  1
  C  C50  1  0.09179950  0.40827450  0.93555100  1
  C  C51  1  0.90820050  0.40827450  0.56444900  1
  C  C52  1  0.00681300  0.30817900  0.12713600  1
  C  C53  1  0.99318700  0.30817900  0.37286400  1
  C  C54  1  0.99318700  0.69182100  0.87286400  1
  C  C55  1  0.00681300  0.69182100  0.62713600  1
  C  C56  1  0.66775450  0.59853850  0.20656200  1
  C  C57  1  0.33224550  0.59853850  0.29343800  1
  C  C58  1  0.33224550  0.40146150  0.79343800  1
  C  C59  1  0.66775450  0.40146150  0.70656200  1
  C  C60  1  0.40820050  0.09172550  0.06444900  1
  C  C61  1  0.59179950  0.09172550  0.43555100  1
  C  C62  1  0.59179950  0.90827450  0.93555100  1
  C  C63  1  0.40820050  0.90827450  0.56444900  1
  C  C64  1  0.50681300  0.80817900  0.12713600  1
  C  C65  1  0.49318700  0.80817900  0.37286400  1
  C  C66  1  0.49318700  0.19182100  0.87286400  1
  C  C67  1  0.50681300  0.19182100  0.62713600  1
  C  C68  1  0.16775450  0.09853850  0.20656200  1
  C  C69  1  0.83224550  0.09853850  0.29343800  1
  C  C70  1  0.83224550  0.90146150  0.79343800  1
  C  C71  1  0.16775450  0.90146150  0.70656200  1
  N  N72  1  0.77203950  0.50170250  0.03188700  1
  N  N73  1  0.22796050  0.50170250  0.46811300  1
  N  N74  1  0.22796050  0.49829750  0.96811300  1
  N  N75  1  0.77203950  0.49829750  0.53188700  1
  N  N76  1  0.01759300  0.49273200  0.11029700  1
  N  N77  1  0.98240700  0.49273200  0.38970300  1
  N  N78  1  0.98240700  0.50726800  0.88970300  1
  N  N79  1  0.01759300  0.50726800  0.61029700  1
  N  N80  1  0.12945000  0.26930200  0.17818600  1
  N  N81  1  0.87055000  0.26930200  0.32181400  1
  N  N82  1  0.87055000  0.73069800  0.82181400  1
  N  N83  1  0.12945000  0.73069800  0.67818600  1
  N  N84  1  0.60377950  0.44274450  0.17906600  1
  N  N85  1  0.39622050  0.44274450  0.32093400  1
  N  N86  1  0.39622050  0.55725550  0.82093400  1
  N  N87  1  0.60377950  0.55725550  0.67906600  1
  N  N88  1  0.27203950  0.00170250  0.03188700  1
  N  N89  1  0.72796050  0.00170250  0.46811300  1
  N  N90  1  0.72796050  0.99829750  0.96811300  1
  N  N91  1  0.27203950  0.99829750  0.53188700  1
  N  N92  1  0.51759300  0.99273200  0.11029700  1
  N  N93  1  0.48240700  0.99273200  0.38970300  1
  N  N94  1  0.48240700  0.00726800  0.88970300  1
  N  N95  1  0.51759300  0.00726800  0.61029700  1
  N  N96  1  0.62945000  0.76930200  0.17818600  1
  N  N97  1  0.37055000  0.76930200  0.32181400  1
  N  N98  1  0.37055000  0.23069800  0.82181400  1
  N  N99  1  0.62945000  0.23069800  0.67818600  1
  N  N100  1  0.10377950  0.94274450  0.17906600  1
  N  N101  1  0.89622050  0.94274450  0.32093400  1
  N  N102  1  0.89622050  0.05725550  0.82093400  1
  N  N103  1  0.10377950  0.05725550  0.67906600  1
  O  O104  1  0.94714500  0.75914100  0.05800700  1
  O  O105  1  0.05285500  0.75914100  0.44199300  1
  O  O106  1  0.05285500  0.24085900  0.94199300  1
  O  O107  1  0.94714500  0.24085900  0.55800700  1
  O  O108  1  0.90084100  0.19379600  0.10073300  1
  O  O109  1  0.09915900  0.19379600  0.39926700  1
  O  O110  1  0.09915900  0.80620400  0.89926700  1
  O  O111  1  0.90084100  0.80620400  0.60073300  1
  O  O112  1  0.76565250  0.59928050  0.25770100  1
  O  O113  1  0.23434750  0.59928050  0.24229900  1
  O  O114  1  0.23434750  0.40071950  0.74229900  1
  O  O115  1  0.76565250  0.40071950  0.75770100  1
  O  O116  1  0.44714500  0.25914100  0.05800700  1
  O  O117  1  0.55285500  0.25914100  0.44199300  1
  O  O118  1  0.55285500  0.74085900  0.94199300  1
  O  O119  1  0.44714500  0.74085900  0.55800700  1
  O  O120  1  0.40084100  0.69379600  0.10073300  1
  O  O121  1  0.59915900  0.69379600  0.39926700  1
  O  O122  1  0.59915900  0.30620400  0.89926700  1
  O  O123  1  0.40084100  0.30620400  0.60073300  1
  O  O124  1  0.26565250  0.09928050  0.25770100  1
  O  O125  1  0.73434750  0.09928050  0.24229900  1
  O  O126  1  0.73434750  0.90071950  0.74229900  1
  O  O127  1  0.26565250  0.90071950  0.75770100  1
