# generated using pymatgen
data_InH7N2OF4
_symmetry_space_group_name_H-M   'P 1'
_cell_length_a   6.88678100
_cell_length_b   8.75493600
_cell_length_c   9.29824700
_cell_angle_alpha   90.00000000
_cell_angle_beta   90.00000000
_cell_angle_gamma   90.00000000
_symmetry_Int_Tables_number   1
_chemical_formula_structural   InH7N2OF4
_chemical_formula_sum   'In4 H28 N8 O4 F16'
_cell_volume   560.62224598
_cell_formula_units_Z   4
loop_
 _symmetry_equiv_pos_site_id
 _symmetry_equiv_pos_as_xyz
  1  'x, y, z'
loop_
 _atom_site_type_symbol
 _atom_site_label
 _atom_site_symmetry_multiplicity
 _atom_site_fract_x
 _atom_site_fract_y
 _atom_site_fract_z
 _atom_site_occupancy
  In  In0  1  0.86478600  0.71516800  0.44703700  1
  In  In1  1  0.63521400  0.28483200  0.94703700  1
  In  In2  1  0.36478600  0.78483200  0.55296300  1
  In  In3  1  0.13521400  0.21516800  0.05296300  1
  H  H4  1  0.00010100  0.49814900  0.23839400  1
  H  H5  1  0.49989900  0.50185100  0.73839400  1
  H  H6  1  0.50010100  0.00185100  0.76160600  1
  H  H7  1  0.99989900  0.99814900  0.26160600  1
  H  H8  1  0.76983900  0.51615600  0.20348400  1
  H  H9  1  0.73016100  0.48384400  0.70348400  1
  H  H10  1  0.26983900  0.98384400  0.79651600  1
  H  H11  1  0.23016100  0.01615600  0.29651600  1
  H  H12  1  0.93183800  0.57164500  0.91901600  1
  H  H13  1  0.56816200  0.42835500  0.41901600  1
  H  H14  1  0.43183800  0.92835500  0.08098400  1
  H  H15  1  0.06816200  0.07164500  0.58098400  1
  H  H16  1  0.06439200  0.66177200  0.80005000  1
  H  H17  1  0.43560800  0.33822800  0.30005000  1
  H  H18  1  0.56439200  0.83822800  0.19995000  1
  H  H19  1  0.93560800  0.16177200  0.69995000  1
  H  H20  1  0.77901000  0.79055100  0.78656400  1
  H  H21  1  0.72099000  0.20944900  0.28656400  1
  H  H22  1  0.27901000  0.70944900  0.21343600  1
  H  H23  1  0.22099000  0.29055100  0.71343600  1
  H  H24  1  0.75451300  0.78730900  0.96849200  1
  H  H25  1  0.74548700  0.21269100  0.46849200  1
  H  H26  1  0.25451300  0.71269100  0.03150800  1
  H  H27  1  0.24548700  0.28730900  0.53150800  1
  H  H28  1  0.93038800  0.89616300  0.89173700  1
  H  H29  1  0.56961200  0.10383700  0.39173700  1
  H  H30  1  0.43038800  0.60383700  0.10826300  1
  H  H31  1  0.06961200  0.39616300  0.60826300  1
  N  N32  1  0.00064000  0.67325300  0.89982100  1
  N  N33  1  0.49936000  0.32674700  0.39982100  1
  N  N34  1  0.50064000  0.82674700  0.10017900  1
  N  N35  1  0.99936000  0.17325300  0.60017900  1
  N  N36  1  0.85534000  0.79230100  0.88479100  1
  N  N37  1  0.64466000  0.20769900  0.38479100  1
  N  N38  1  0.35534000  0.70769900  0.11520900  1
  N  N39  1  0.14466000  0.29230100  0.61520900  1
  O  O40  1  0.87654500  0.55045100  0.26788900  1
  O  O41  1  0.62345500  0.44954900  0.76788900  1
  O  O42  1  0.37654500  0.94954900  0.73211100  1
  O  O43  1  0.12345500  0.05045100  0.23211100  1
  F  F44  1  0.55640000  0.66490400  0.39817300  1
  F  F45  1  0.94360000  0.33509600  0.89817300  1
  F  F46  1  0.05640000  0.83509600  0.60182700  1
  F  F47  1  0.44360000  0.16490400  0.10182700  1
  F  F48  1  0.82163900  0.91018600  0.32387400  1
  F  F49  1  0.67836100  0.08981400  0.82387400  1
  F  F50  1  0.32163900  0.58981400  0.67612600  1
  F  F51  1  0.17836100  0.41018600  0.17612600  1
  F  F52  1  0.88893300  0.52340700  0.58238600  1
  F  F53  1  0.61106700  0.47659300  0.08238600  1
  F  F54  1  0.38893300  0.97659300  0.41761400  1
  F  F55  1  0.11106700  0.02340700  0.91761400  1
  F  F56  1  0.67266700  0.80023900  0.62062700  1
  F  F57  1  0.82733300  0.19976100  0.12062700  1
  F  F58  1  0.17266700  0.69976100  0.37937300  1
  F  F59  1  0.32733300  0.30023900  0.87937300  1
