# generated using pymatgen
data_BaTa4O11
_symmetry_space_group_name_H-M   'P 1'
_cell_length_a   6.36956601
_cell_length_b   6.36956601
_cell_length_c   12.59168800
_cell_angle_alpha   90.00000000
_cell_angle_beta   90.00000000
_cell_angle_gamma   120.00000000
_symmetry_Int_Tables_number   1
_chemical_formula_structural   BaTa4O11
_chemical_formula_sum   'Ba2 Ta8 O22'
_cell_volume   442.41951140
_cell_formula_units_Z   2
loop_
 _symmetry_equiv_pos_site_id
 _symmetry_equiv_pos_as_xyz
  1  'x, y, z'
loop_
 _atom_site_type_symbol
 _atom_site_label
 _atom_site_symmetry_multiplicity
 _atom_site_fract_x
 _atom_site_fract_y
 _atom_site_fract_z
 _atom_site_occupancy
  Ba  Ba0  1  0.66666667  0.33333333  0.25000000  1
  Ba  Ba1  1  0.33333333  0.66666667  0.75000000  1
  Ta  Ta2  1  0.64603650  0.64603650  0.00000000  1
  Ta  Ta3  1  0.35396350  0.35396350  0.50000000  1
  Ta  Ta4  1  0.66666667  0.33333333  0.75000000  1
  Ta  Ta5  1  0.35396350  0.00000000  0.00000000  1
  Ta  Ta6  1  0.64603650  0.00000000  0.50000000  1
  Ta  Ta7  1  0.00000000  0.64603650  0.50000000  1
  Ta  Ta8  1  0.33333333  0.66666667  0.25000000  1
  Ta  Ta9  1  0.00000000  0.35396350  0.00000000  1
  O  O10  1  0.75828650  0.75828650  0.50000000  1
  O  O11  1  0.63857700  0.56576800  0.84796200  1
  O  O12  1  0.43423200  0.36142300  0.65203800  1
  O  O13  1  0.24171350  0.24171350  0.00000000  1
  O  O14  1  0.92719100  0.56576800  0.65203800  1
  O  O15  1  0.66666667  0.33333333  0.03310600  1
  O  O16  1  0.66666667  0.33333333  0.46689400  1
  O  O17  1  0.92719100  0.36142300  0.84796200  1
  O  O18  1  0.24171350  0.00000000  0.50000000  1
  O  O19  1  0.43423200  0.07280900  0.84796200  1
  O  O20  1  0.36142300  0.92719100  0.15203800  1
  O  O21  1  0.00000000  0.75828650  0.00000000  1
  O  O22  1  0.63857700  0.07280900  0.65203800  1
  O  O23  1  0.56576800  0.92719100  0.34796200  1
  O  O24  1  0.75828650  0.00000000  0.00000000  1
  O  O25  1  0.07280900  0.63857700  0.34796200  1
  O  O26  1  0.33333333  0.66666667  0.53310600  1
  O  O27  1  0.33333333  0.66666667  0.96689400  1
  O  O28  1  0.07280900  0.43423200  0.15203800  1
  O  O29  1  0.56576800  0.63857700  0.15203800  1
  O  O30  1  0.00000000  0.24171350  0.50000000  1
  O  O31  1  0.36142300  0.43423200  0.34796200  1
