# generated using pymatgen
data_BaCaI4
_symmetry_space_group_name_H-M   'P 1'
_cell_length_a   10.52432400
_cell_length_b   15.14629600
_cell_length_c   7.76870923
_cell_angle_alpha   90.00000000
_cell_angle_beta   124.09527666
_cell_angle_gamma   90.00000000
_symmetry_Int_Tables_number   1
_chemical_formula_structural   BaCaI4
_chemical_formula_sum   'Ba4 Ca4 I16'
_cell_volume   1025.50016904
_cell_formula_units_Z   4
loop_
 _symmetry_equiv_pos_site_id
 _symmetry_equiv_pos_as_xyz
  1  'x, y, z'
loop_
 _atom_site_type_symbol
 _atom_site_label
 _atom_site_symmetry_multiplicity
 _atom_site_fract_x
 _atom_site_fract_y
 _atom_site_fract_z
 _atom_site_occupancy
  Ba  Ba0  1  0.00000000  0.36542200  0.25000000  1
  Ba  Ba1  1  0.50000000  0.13457800  0.75000000  1
  Ba  Ba2  1  0.50000000  0.86542200  0.25000000  1
  Ba  Ba3  1  0.00000000  0.63457800  0.75000000  1
  Ca  Ca4  1  0.50000000  0.49760100  0.75000000  1
  Ca  Ca5  1  0.00000000  0.00239900  0.25000000  1
  Ca  Ca6  1  0.00000000  0.99760100  0.75000000  1
  Ca  Ca7  1  0.50000000  0.50239900  0.25000000  1
  I  I8  1  0.70934950  0.06148450  0.28117600  1
  I  I9  1  0.11298500  0.17127600  0.57945100  1
  I  I10  1  0.29065050  0.06148450  0.21882400  1
  I  I11  1  0.88701500  0.17127600  0.92054900  1
  I  I12  1  0.61298500  0.32872400  0.07945100  1
  I  I13  1  0.20934950  0.43851550  0.78117600  1
  I  I14  1  0.38701500  0.32872400  0.42054900  1
  I  I15  1  0.79065050  0.43851550  0.71882400  1
  I  I16  1  0.20934950  0.56148450  0.28117600  1
  I  I17  1  0.61298500  0.67127600  0.57945100  1
  I  I18  1  0.79065050  0.56148450  0.21882400  1
  I  I19  1  0.38701500  0.67127600  0.92054900  1
  I  I20  1  0.11298500  0.82872400  0.07945100  1
  I  I21  1  0.70934950  0.93851550  0.78117600  1
  I  I22  1  0.88701500  0.82872400  0.42054900  1
  I  I23  1  0.29065050  0.93851550  0.71882400  1
