# generated using pymatgen
data_Ba2P6O17
_symmetry_space_group_name_H-M   'P 1'
_cell_length_a   7.47999500
_cell_length_b   13.71854300
_cell_length_c   7.52322408
_cell_angle_alpha   90.00000000
_cell_angle_beta   105.08077894
_cell_angle_gamma   90.00000000
_symmetry_Int_Tables_number   1
_chemical_formula_structural   Ba2P6O17
_chemical_formula_sum   'Ba4 P12 O34'
_cell_volume   745.40541867
_cell_formula_units_Z   2
loop_
 _symmetry_equiv_pos_site_id
 _symmetry_equiv_pos_as_xyz
  1  'x, y, z'
loop_
 _atom_site_type_symbol
 _atom_site_label
 _atom_site_symmetry_multiplicity
 _atom_site_fract_x
 _atom_site_fract_y
 _atom_site_fract_z
 _atom_site_occupancy
  Ba  Ba0  1  0.12003600  0.71821800  0.79779600  1
  Ba  Ba1  1  0.83117200  0.00656800  0.78333400  1
  Ba  Ba2  1  0.16882800  0.50656800  0.21666600  1
  Ba  Ba3  1  0.87996400  0.21821800  0.20220400  1
  P  P4  1  0.39610400  0.93856300  0.99511800  1
  P  P5  1  0.05933500  0.22838800  0.74874900  1
  P  P6  1  0.47428100  0.26002500  0.75770200  1
  P  P7  1  0.61428000  0.74884100  0.66333400  1
  P  P8  1  0.61632400  0.53560700  0.66128300  1
  P  P9  1  0.99351400  0.44609200  0.68073100  1
  P  P10  1  0.00648600  0.94609200  0.31926900  1
  P  P11  1  0.38367600  0.03560700  0.33871700  1
  P  P12  1  0.38572000  0.24884100  0.33666600  1
  P  P13  1  0.52571900  0.76002500  0.24229800  1
  P  P14  1  0.94066500  0.72838800  0.25125100  1
  P  P15  1  0.60389600  0.43856300  0.00488200  1
  O  O16  1  0.04298900  0.17266500  0.91501900  1
  O  O17  1  0.20223200  0.90042100  0.93132700  1
  O  O18  1  0.07829500  0.52091600  0.82337200  1
  O  O19  1  0.03116000  0.34222100  0.78831200  1
  O  O20  1  0.47414800  0.36373800  0.84824900  1
  O  O21  1  0.60880400  0.53177200  0.86980500  1
  O  O22  1  0.50512900  0.96789700  0.86579300  1
  O  O23  1  0.62798400  0.19498400  0.85278800  1
  O  O24  1  0.27656200  0.21830500  0.74389800  1
  O  O25  1  0.46348500  0.73901300  0.75662900  1
  O  O26  1  0.78069400  0.81137200  0.73674900  1
  O  O27  1  0.03403100  0.43948700  0.49813600  1
  O  O28  1  0.70681800  0.63981400  0.64421800  1
  O  O29  1  0.76443000  0.45751800  0.63939100  1
  O  O30  1  0.05550400  0.69649200  0.43554200  1
  O  O31  1  0.47803500  0.27998000  0.55110000  1
  O  O32  1  0.43436100  0.52271200  0.52996600  1
  O  O33  1  0.56563900  0.02271200  0.47003400  1
  O  O34  1  0.52196500  0.77998000  0.44890000  1
  O  O35  1  0.94449600  0.19649200  0.56445800  1
  O  O36  1  0.23557000  0.95751800  0.36060900  1
  O  O37  1  0.29318200  0.13981400  0.35578200  1
  O  O38  1  0.96596900  0.93948700  0.50186400  1
  O  O39  1  0.21930600  0.31137200  0.26325100  1
  O  O40  1  0.53651500  0.23901300  0.24337100  1
  O  O41  1  0.72343800  0.71830500  0.25610200  1
  O  O42  1  0.37201600  0.69498400  0.14721200  1
  O  O43  1  0.49487100  0.46789700  0.13420700  1
  O  O44  1  0.39119600  0.03177200  0.13019500  1
  O  O45  1  0.52585200  0.86373800  0.15175100  1
  O  O46  1  0.96884000  0.84222100  0.21168800  1
  O  O47  1  0.92170500  0.02091600  0.17662800  1
  O  O48  1  0.79776800  0.40042100  0.06867300  1
  O  O49  1  0.95701100  0.67266500  0.08498100  1
