# generated using pymatgen
data_Li5Mn17(SiO16)2
_symmetry_space_group_name_H-M   'P 1'
_cell_length_a   8.34877170
_cell_length_b   8.42886272
_cell_length_c   8.63365284
_cell_angle_alpha   90.34428479
_cell_angle_beta   90.04809229
_cell_angle_gamma   90.63866292
_symmetry_Int_Tables_number   1
_chemical_formula_structural   Li5Mn17(SiO16)2
_chemical_formula_sum   'Li5 Mn17 Si2 O32'
_cell_volume   607.50680591
_cell_formula_units_Z   1
loop_
 _symmetry_equiv_pos_site_id
 _symmetry_equiv_pos_as_xyz
  1  'x, y, z'
loop_
 _atom_site_type_symbol
 _atom_site_label
 _atom_site_symmetry_multiplicity
 _atom_site_fract_x
 _atom_site_fract_y
 _atom_site_fract_z
 _atom_site_occupancy
  Li  Li0  1  0.49492400  0.49850500  0.99999200  1
  Li  Li1  1  0.00642700  0.50174000  0.50798400  1
  Li  Li2  1  0.49699000  0.98830200  0.50186700  1
  Li  Li3  1  0.24606500  0.75387900  0.24358200  1
  Li  Li4  1  0.00233900  0.99324000  0.99791600  1
  Mn  Mn5  1  0.62123400  0.12610600  0.87124100  1
  Mn  Mn6  1  0.88394900  0.37802600  0.86350900  1
  Mn  Mn7  1  0.25788100  0.25224000  0.75201500  1
  Mn  Mn8  1  0.74855500  0.75177400  0.75754500  1
  Mn  Mn9  1  0.37596800  0.63669200  0.62430400  1
  Mn  Mn10  1  0.12632100  0.87837800  0.63543700  1
  Mn  Mn11  1  0.62570200  0.37372500  0.62471400  1
  Mn  Mn12  1  0.87435800  0.12312200  0.63349400  1
  Mn  Mn13  1  0.62456800  0.62958900  0.37274800  1
  Mn  Mn14  1  0.87388500  0.87392100  0.37342100  1
  Mn  Mn15  1  0.37325200  0.37842700  0.37375800  1
  Mn  Mn16  1  0.12654200  0.12191300  0.37381900  1
  Mn  Mn17  1  0.75012900  0.25376800  0.24573500  1
  Mn  Mn18  1  0.61791600  0.86431800  0.12203000  1
  Mn  Mn19  1  0.87708300  0.62438800  0.12478400  1
  Mn  Mn20  1  0.36602600  0.12150000  0.12209800  1
  Mn  Mn21  1  0.13116000  0.37672600  0.11833600  1
  Si  Si22  1  0.36338300  0.86794900  0.88665000  1
  Si  Si23  1  0.13582500  0.62981800  0.87932000  1
  O  O24  1  0.58550000  0.87404700  0.89254300  1
  O  O25  1  0.13924700  0.42165800  0.86959300  1
  O  O26  1  0.91537700  0.61257000  0.86525500  1
  O  O27  1  0.62305300  0.36650900  0.84819400  1
  O  O28  1  0.36561800  0.08542100  0.89233600  1
  O  O29  1  0.14704900  0.84489500  0.88760800  1
  O  O30  1  0.35348300  0.65481300  0.88415500  1
  O  O31  1  0.87540900  0.14422600  0.85505700  1
  O  O32  1  0.36339000  0.87457100  0.67403900  1
  O  O33  1  0.86403300  0.35353900  0.63292600  1
  O  O34  1  0.64420600  0.11430700  0.64617900  1
  O  O35  1  0.88999900  0.89762200  0.63024000  1
  O  O36  1  0.14358000  0.64420600  0.65973700  1
  O  O37  1  0.39119100  0.39254200  0.60874300  1
  O  O38  1  0.60728800  0.63654900  0.59919700  1
  O  O39  1  0.10619500  0.10994200  0.62716800  1
  O  O40  1  0.39658700  0.62672100  0.37762000  1
  O  O41  1  0.88043500  0.11319600  0.39790200  1
  O  O42  1  0.10559400  0.89102500  0.38200900  1
  O  O43  1  0.36238100  0.11686900  0.34546500  1
  O  O44  1  0.61388900  0.39243400  0.39262900  1
  O  O45  1  0.85818500  0.64107600  0.37798500  1
  O  O46  1  0.63603900  0.85868200  0.35454300  1
  O  O47  1  0.14488100  0.35533900  0.37718000  1
  O  O48  1  0.64361600  0.61039400  0.15060000  1
  O  O49  1  0.13716600  0.14438800  0.12046300  1
  O  O50  1  0.36430600  0.35374200  0.13818600  1
  O  O51  1  0.11419100  0.61407100  0.09176500  1
  O  O52  1  0.85051700  0.85521000  0.11742100  1
  O  O53  1  0.60281100  0.12794400  0.09829900  1
  O  O54  1  0.38032100  0.88715000  0.09822900  1
  O  O55  1  0.89389300  0.38620900  0.10043100  1
