# generated using pymatgen
data_Cs2CeO3
_symmetry_space_group_name_H-M   'P 1'
_cell_length_a   7.82729200
_cell_length_b   11.66196200
_cell_length_c   6.54551900
_cell_angle_alpha   90.00000000
_cell_angle_beta   90.00000000
_cell_angle_gamma   90.00000000
_symmetry_Int_Tables_number   1
_chemical_formula_structural   Cs2CeO3
_chemical_formula_sum   'Cs8 Ce4 O12'
_cell_volume   597.48532846
_cell_formula_units_Z   4
loop_
 _symmetry_equiv_pos_site_id
 _symmetry_equiv_pos_as_xyz
  1  'x, y, z'
loop_
 _atom_site_type_symbol
 _atom_site_label
 _atom_site_symmetry_multiplicity
 _atom_site_fract_x
 _atom_site_fract_y
 _atom_site_fract_z
 _atom_site_occupancy
  Cs  Cs0  1  0.64166900  0.16489900  0.25529600  1
  Cs  Cs1  1  0.35833100  0.16489900  0.75529600  1
  Cs  Cs2  1  0.35833100  0.83510100  0.75529600  1
  Cs  Cs3  1  0.64166900  0.83510100  0.25529600  1
  Cs  Cs4  1  0.14166900  0.66489900  0.25529600  1
  Cs  Cs5  1  0.85833100  0.66489900  0.75529600  1
  Cs  Cs6  1  0.85833100  0.33510100  0.75529600  1
  Cs  Cs7  1  0.14166900  0.33510100  0.25529600  1
  Ce  Ce8  1  0.09192400  0.00000000  0.23759900  1
  Ce  Ce9  1  0.90807600  0.00000000  0.73759900  1
  Ce  Ce10  1  0.59192400  0.50000000  0.23759900  1
  Ce  Ce11  1  0.40807600  0.50000000  0.73759900  1
  O  O12  1  0.51021850  0.37997850  0.49543200  1
  O  O13  1  0.48978150  0.37997850  0.99543200  1
  O  O14  1  0.64878800  0.00000000  0.69307600  1
  O  O15  1  0.35121200  0.00000000  0.19307600  1
  O  O16  1  0.48978150  0.62002150  0.99543200  1
  O  O17  1  0.51021850  0.62002150  0.49543200  1
  O  O18  1  0.01021850  0.87997850  0.49543200  1
  O  O19  1  0.98978150  0.87997850  0.99543200  1
  O  O20  1  0.14878800  0.50000000  0.69307600  1
  O  O21  1  0.85121200  0.50000000  0.19307600  1
  O  O22  1  0.98978150  0.12002150  0.99543200  1
  O  O23  1  0.01021850  0.12002150  0.49543200  1
