# generated using pymatgen
data_KBaLiZnF6
_symmetry_space_group_name_H-M   'P 1'
_cell_length_a   5.80173842
_cell_length_b   5.80173842
_cell_length_c   71.38584941
_cell_angle_alpha   90.00000000
_cell_angle_beta   90.00000000
_cell_angle_gamma   120.00000000
_symmetry_Int_Tables_number   1
_chemical_formula_structural   KBaLiZnF6
_chemical_formula_sum   'K15 Ba15 Li15 Zn15 F90'
_cell_volume   2080.93757293
_cell_formula_units_Z   15
loop_
 _symmetry_equiv_pos_site_id
 _symmetry_equiv_pos_as_xyz
  1  'x, y, z'
loop_
 _atom_site_type_symbol
 _atom_site_label
 _atom_site_symmetry_multiplicity
 _atom_site_fract_x
 _atom_site_fract_y
 _atom_site_fract_z
 _atom_site_occupancy
  K  K0  1  0.66666667  0.33333333  0.03500933  1
  K  K1  1  0.33333333  0.66666667  0.06717567  1
  K  K2  1  0.66666667  0.33333333  0.13394333  1
  K  K3  1  0.66666667  0.33333333  0.23310933  1
  K  K4  1  0.00000000  0.00000000  0.29982900  1
  K  K5  1  0.33333333  0.66666667  0.36834267  1
  K  K6  1  0.00000000  0.00000000  0.40050900  1
  K  K7  1  0.33333333  0.66666667  0.46727667  1
  K  K8  1  0.33333333  0.66666667  0.56644267  1
  K  K9  1  0.66666667  0.33333333  0.63316233  1
  K  K10  1  0.00000000  0.00000000  0.70167600  1
  K  K11  1  0.66666667  0.33333333  0.73384233  1
  K  K12  1  0.00000000  0.00000000  0.80061000  1
  K  K13  1  0.00000000  0.00000000  0.89977600  1
  K  K14  1  0.33333333  0.66666667  0.96649567  1
  Ba  Ba15  1  0.66666667  0.33333333  0.33217933  1
  Ba  Ba16  1  0.00000000  0.00000000  0.10010700  1
  Ba  Ba17  1  0.33333333  0.66666667  0.16501767  1
  Ba  Ba18  1  0.00000000  0.00000000  0.19885000  1
  Ba  Ba19  1  0.33333333  0.66666667  0.26657067  1
  Ba  Ba20  1  0.33333333  0.66666667  0.66551267  1
  Ba  Ba21  1  0.66666667  0.33333333  0.43344033  1
  Ba  Ba22  1  0.00000000  0.00000000  0.49835100  1
  Ba  Ba23  1  0.66666667  0.33333333  0.53218333  1
  Ba  Ba24  1  0.00000000  0.00000000  0.59990400  1
  Ba  Ba25  1  0.00000000  0.00000000  0.99884600  1
  Ba  Ba26  1  0.33333333  0.66666667  0.76677367  1
  Ba  Ba27  1  0.66666667  0.33333333  0.83168433  1
  Ba  Ba28  1  0.33333333  0.66666667  0.86551667  1
  Ba  Ba29  1  0.66666667  0.33333333  0.93323733  1
  Li  Li30  1  0.66666667  0.33333333  0.08272733  1
  Li  Li31  1  0.00000000  0.00000000  0.15033300  1
  Li  Li32  1  0.66666667  0.33333333  0.18189533  1
  Li  Li33  1  0.00000000  0.00000000  0.24974700  1
  Li  Li34  1  0.33333333  0.66666667  0.31670367  1
  Li  Li35  1  0.33333333  0.66666667  0.41606067  1
  Li  Li36  1  0.66666667  0.33333333  0.48366633  1
  Li  Li37  1  0.33333333  0.66666667  0.51522867  1
  Li  Li38  1  0.66666667  0.33333333  0.58308033  1
  Li  Li39  1  0.00000000  0.00000000  0.65003700  1
  Li  Li40  1  0.00000000  0.00000000  0.74939400  1
  Li  Li41  1  0.33333333  0.66666667  0.81699967  1
  Li  Li42  1  0.00000000  0.00000000  0.84856200  1
  Li  Li43  1  0.33333333  0.66666667  0.91641367  1
  Li  Li44  1  0.66666667  0.33333333  0.98337033  1
  Zn  Zn45  1  0.33333333  0.66666667  0.01633967  1
  Zn  Zn46  1  0.00000000  0.00000000  0.05098200  1
  Zn  Zn47  1  0.33333333  0.66666667  0.21717967  1
  Zn  Zn48  1  0.33333333  0.66666667  0.11639767  1
  Zn  Zn49  1  0.66666667  0.33333333  0.28325633  1
  Zn  Zn50  1  0.00000000  0.00000000  0.34967300  1
  Zn  Zn51  1  0.66666667  0.33333333  0.38431533  1
  Zn  Zn52  1  0.00000000  0.00000000  0.55051300  1
  Zn  Zn53  1  0.00000000  0.00000000  0.44973100  1
  Zn  Zn54  1  0.33333333  0.66666667  0.61658967  1
  Zn  Zn55  1  0.66666667  0.33333333  0.68300633  1
  Zn  Zn56  1  0.33333333  0.66666667  0.71764867  1
  Zn  Zn57  1  0.66666667  0.33333333  0.88384633  1
  Zn  Zn58  1  0.66666667  0.33333333  0.78306433  1
  Zn  Zn59  1  0.00000000  0.00000000  0.94992300  1
  F  F60  1  0.16652300  0.83347700  0.33326800  1
  F  F61  1  0.67701400  0.83850700  0.03229800  1
  F  F62  1  0.16652300  0.33304600  0.33326800  1
  F  F63  1  0.16149300  0.32298600  0.03229800  1
  F  F64  1  0.16149300  0.83850700  0.03229800  1
  F  F65  1  0.66695400  0.83347700  0.33326800  1
  F  F66  1  0.83671933  0.16328067  0.06709967  1
  F  F67  1  0.99980533  0.49990267  0.09996067  1
  F  F68  1  0.83671933  0.67343867  0.06709967  1
  F  F69  1  0.50009733  0.00019467  0.09996067  1
  F  F70  1  0.50009733  0.49990267  0.09996067  1
  F  F71  1  0.32656133  0.16328067  0.06709967  1
  F  F72  1  0.16714067  0.83285933  0.13329133  1
  F  F73  1  0.32594800  0.16297400  0.16777700  1
  F  F74  1  0.16714067  0.33428133  0.13329133  1
  F  F75  1  0.83702600  0.67405200  0.16777700  1
  F  F76  1  0.66571867  0.83285933  0.13329133  1
  F  F77  1  0.83702600  0.16297400  0.16777700  1
  F  F78  1  0.66536067  0.83268033  0.23355633  1
  F  F79  1  0.49647667  0.50352333  0.19961233  1
  F  F80  1  0.49647667  0.99295333  0.19961233  1
  F  F81  1  0.16731967  0.33463933  0.23355633  1
  F  F82  1  0.16731967  0.83268033  0.23355633  1
  F  F83  1  0.00704667  0.50352333  0.19961233  1
  F  F84  1  0.83377967  0.16622033  0.26665433  1
  F  F85  1  0.99997200  0.49998600  0.29995000  1
  F  F86  1  0.50001400  0.00002800  0.29995000  1
  F  F87  1  0.83377967  0.66755933  0.26665433  1
  F  F88  1  0.50001400  0.49998600  0.29995000  1
  F  F89  1  0.33244067  0.16622033  0.26665433  1
  F  F90  1  0.83318967  0.16681033  0.66660133  1
  F  F91  1  0.34368067  0.17184033  0.36563133  1
  F  F92  1  0.83318967  0.66637933  0.66660133  1
  F  F93  1  0.82815967  0.65631933  0.36563133  1
  F  F94  1  0.82815967  0.17184033  0.36563133  1
  F  F95  1  0.33362067  0.16681033  0.66660133  1
  F  F96  1  0.50338600  0.49661400  0.40043300  1
  F  F97  1  0.66647200  0.83323600  0.43329400  1
  F  F98  1  0.50338600  0.00677200  0.40043300  1
  F  F99  1  0.16676400  0.33352800  0.43329400  1
  F  F100  1  0.16676400  0.83323600  0.43329400  1
  F  F101  1  0.99322800  0.49661400  0.40043300  1
  F  F102  1  0.83380733  0.16619267  0.46662467  1
  F  F103  1  0.99261467  0.49630733  0.50111033  1
  F  F104  1  0.83380733  0.66761467  0.46662467  1
  F  F105  1  0.50369267  0.00738533  0.50111033  1
  F  F106  1  0.33238533  0.16619267  0.46662467  1
  F  F107  1  0.50369267  0.49630733  0.50111033  1
  F  F108  1  0.33202733  0.16601367  0.56688967  1
  F  F109  1  0.16314333  0.83685667  0.53294567  1
  F  F110  1  0.16314333  0.32628667  0.53294567  1
  F  F111  1  0.83398633  0.66797267  0.56688967  1
  F  F112  1  0.83398633  0.16601367  0.56688967  1
  F  F113  1  0.67371333  0.83685667  0.53294567  1
  F  F114  1  0.50044633  0.49955367  0.59998767  1
  F  F115  1  0.66663867  0.83331933  0.63328333  1
  F  F116  1  0.16668067  0.33336133  0.63328333  1
  F  F117  1  0.50044633  0.00089267  0.59998767  1
  F  F118  1  0.16668067  0.83331933  0.63328333  1
  F  F119  1  0.99910733  0.49955367  0.59998767  1
  F  F120  1  0.49985633  0.50014367  0.99993467  1
  F  F121  1  0.01034733  0.50517367  0.69896467  1
  F  F122  1  0.49985633  0.99971267  0.99993467  1
  F  F123  1  0.49482633  0.98965267  0.69896467  1
  F  F124  1  0.49482633  0.50517367  0.69896467  1
  F  F125  1  0.00028733  0.50014367  0.99993467  1
  F  F126  1  0.17005267  0.82994733  0.73376633  1
  F  F127  1  0.33313867  0.16656933  0.76662733  1
  F  F128  1  0.17005267  0.34010533  0.73376633  1
  F  F129  1  0.83343067  0.66686133  0.76662733  1
  F  F130  1  0.83343067  0.16656933  0.76662733  1
  F  F131  1  0.65989467  0.82994733  0.73376633  1
  F  F132  1  0.50047400  0.49952600  0.79995800  1
  F  F133  1  0.65928133  0.82964067  0.83444367  1
  F  F134  1  0.50047400  0.00094800  0.79995800  1
  F  F135  1  0.17035933  0.34071867  0.83444367  1
  F  F136  1  0.99905200  0.49952600  0.79995800  1
  F  F137  1  0.17035933  0.82964067  0.83444367  1
  F  F138  1  0.99869400  0.49934700  0.90022300  1
  F  F139  1  0.82981000  0.17019000  0.86627900  1
  F  F140  1  0.82981000  0.65962000  0.86627900  1
  F  F141  1  0.50065300  0.00130600  0.90022300  1
  F  F142  1  0.50065300  0.49934700  0.90022300  1
  F  F143  1  0.34038000  0.17019000  0.86627900  1
  F  F144  1  0.16711300  0.83288700  0.93332100  1
  F  F145  1  0.33330533  0.16665267  0.96661667  1
  F  F146  1  0.83334733  0.66669467  0.96661667  1
  F  F147  1  0.16711300  0.33422600  0.93332100  1
  F  F148  1  0.83334733  0.16665267  0.96661667  1
  F  F149  1  0.66577400  0.83288700  0.93332100  1
