# generated using pymatgen
data_BaP2(HO2)4
_symmetry_space_group_name_H-M   'P 1'
_cell_length_a   7.07449300
_cell_length_b   7.43402532
_cell_length_c   8.27784841
_cell_angle_alpha   100.86658614
_cell_angle_beta   100.23256576
_cell_angle_gamma   104.51535462
_symmetry_Int_Tables_number   1
_chemical_formula_structural   BaP2(HO2)4
_chemical_formula_sum   'Ba2 P4 H8 O16'
_cell_volume   402.14819320
_cell_formula_units_Z   2
loop_
 _symmetry_equiv_pos_site_id
 _symmetry_equiv_pos_as_xyz
  1  'x, y, z'
loop_
 _atom_site_type_symbol
 _atom_site_label
 _atom_site_symmetry_multiplicity
 _atom_site_fract_x
 _atom_site_fract_y
 _atom_site_fract_z
 _atom_site_occupancy
  Ba  Ba0  1  0.72658700  0.75749400  0.87166600  1
  Ba  Ba1  1  0.27341300  0.24250600  0.12833400  1
  P  P2  1  0.73122300  0.24142600  0.88647700  1
  P  P3  1  0.26877700  0.75857400  0.11352300  1
  P  P4  1  0.76817900  0.68331000  0.41321500  1
  P  P5  1  0.23182100  0.31669000  0.58678500  1
  H  H6  1  0.94041600  0.37764800  0.67837200  1
  H  H7  1  0.05958400  0.62235200  0.32162800  1
  H  H8  1  0.40920400  0.12779600  0.75124600  1
  H  H9  1  0.59079600  0.87220400  0.24875400  1
  H  H10  1  0.50000000  0.50000000  0.50000000  1
  H  H11  1  0.00000000  0.50000000  0.50000000  1
  H  H12  1  0.74306000  0.46642200  0.11359700  1
  H  H13  1  0.25694000  0.53357800  0.88640300  1
  O  O14  1  0.64408600  0.35713200  0.02952700  1
  O  O15  1  0.35591400  0.64286800  0.97047300  1
  O  O16  1  0.87836900  0.14845700  0.96549400  1
  O  O17  1  0.12163100  0.85154300  0.03450600  1
  O  O18  1  0.81201500  0.38720700  0.78919900  1
  O  O19  1  0.18798500  0.61279300  0.21080100  1
  O  O20  1  0.53367300  0.07747700  0.78567500  1
  O  O21  1  0.46632700  0.92252300  0.21432500  1
  O  O22  1  0.74799600  0.76911500  0.25925600  1
  O  O23  1  0.25200400  0.23088500  0.74074400  1
  O  O24  1  0.58583300  0.50082800  0.38597600  1
  O  O25  1  0.41416700  0.49917200  0.61402400  1
  O  O26  1  0.95540800  0.58871400  0.39884500  1
  O  O27  1  0.04459200  0.41128600  0.60115500  1
  O  O28  1  0.18514400  0.18958500  0.41169500  1
  O  O29  1  0.81485600  0.81041500  0.58830500  1
