# generated using pymatgen
data_Tb2Pb2O7
_symmetry_space_group_name_H-M   'P 1'
_cell_length_a   7.38762800
_cell_length_b   7.38762800
_cell_length_c   12.90419500
_cell_angle_alpha   90.00000000
_cell_angle_beta   90.00000000
_cell_angle_gamma   90.00000000
_symmetry_Int_Tables_number   1
_chemical_formula_structural   Tb2Pb2O7
_chemical_formula_sum   'Tb8 Pb8 O28'
_cell_volume   704.27286303
_cell_formula_units_Z   4
loop_
 _symmetry_equiv_pos_site_id
 _symmetry_equiv_pos_as_xyz
  1  'x, y, z'
loop_
 _atom_site_type_symbol
 _atom_site_label
 _atom_site_symmetry_multiplicity
 _atom_site_fract_x
 _atom_site_fract_y
 _atom_site_fract_z
 _atom_site_occupancy
  Tb  Tb0  1  0.64310000  0.12464800  0.13935600  1
  Tb  Tb1  1  0.62464800  0.85690000  0.88935600  1
  Tb  Tb2  1  0.87535200  0.35690000  0.36064400  1
  Tb  Tb3  1  0.85690000  0.62464800  0.11064400  1
  Tb  Tb4  1  0.14310000  0.37535200  0.61064400  1
  Tb  Tb5  1  0.12464800  0.64310000  0.86064400  1
  Tb  Tb6  1  0.37535200  0.14310000  0.38935600  1
  Tb  Tb7  1  0.35690000  0.87535200  0.63935600  1
  Pb  Pb8  1  0.61231200  0.37424600  0.59848900  1
  Pb  Pb9  1  0.62575400  0.38768800  0.90151100  1
  Pb  Pb10  1  0.87424600  0.88768800  0.34848900  1
  Pb  Pb11  1  0.88768800  0.87424600  0.65151100  1
  Pb  Pb12  1  0.11231200  0.12575400  0.15151100  1
  Pb  Pb13  1  0.12575400  0.11231200  0.84848900  1
  Pb  Pb14  1  0.37424600  0.61231200  0.40151100  1
  Pb  Pb15  1  0.38768800  0.62575400  0.09848900  1
  O  O16  1  0.56965600  0.40392000  0.41110700  1
  O  O17  1  0.59568100  0.82504900  0.07530200  1
  O  O18  1  0.59608000  0.43034400  0.08889300  1
  O  O19  1  0.66952600  0.12982400  0.96175600  1
  O  O20  1  0.67495100  0.09568100  0.32530200  1
  O  O21  1  0.62982400  0.83047400  0.71175600  1
  O  O22  1  0.69917600  0.30082400  0.75000000  1
  O  O23  1  0.80082400  0.80082400  0.50000000  1
  O  O24  1  0.87017600  0.33047400  0.53824400  1
  O  O25  1  0.82504900  0.59568100  0.92469800  1
  O  O26  1  0.83047400  0.62982400  0.28824400  1
  O  O27  1  0.90392000  0.93034400  0.16110700  1
  O  O28  1  0.90431900  0.32504900  0.17469800  1
  O  O29  1  0.93034400  0.90392000  0.83889300  1
  O  O30  1  0.06965600  0.09608000  0.33889300  1
  O  O31  1  0.09568100  0.67495100  0.67469800  1
  O  O32  1  0.09608000  0.06965600  0.66110700  1
  O  O33  1  0.16952600  0.37017600  0.78824400  1
  O  O34  1  0.17495100  0.40431900  0.42469800  1
  O  O35  1  0.12982400  0.66952600  0.03824400  1
  O  O36  1  0.19917600  0.19917600  0.00000000  1
  O  O37  1  0.30082400  0.69917600  0.25000000  1
  O  O38  1  0.37017600  0.16952600  0.21175600  1
  O  O39  1  0.32504900  0.90431900  0.82530200  1
  O  O40  1  0.33047400  0.87017600  0.46175600  1
  O  O41  1  0.40392000  0.56965600  0.58889300  1
  O  O42  1  0.40431900  0.17495100  0.57530200  1
  O  O43  1  0.43034400  0.59608000  0.91110700  1
