# generated using pymatgen
data_Zr4N2O5
_symmetry_space_group_name_H-M   'P 1'
_cell_length_a   10.32599800
_cell_length_b   10.32599800
_cell_length_c   10.20492600
_cell_angle_alpha   90.00000000
_cell_angle_beta   90.00000000
_cell_angle_gamma   90.00000000
_symmetry_Int_Tables_number   1
_chemical_formula_structural   Zr4N2O5
_chemical_formula_sum   'Zr32 N16 O40'
_cell_volume   1088.11283473
_cell_formula_units_Z   8
loop_
 _symmetry_equiv_pos_site_id
 _symmetry_equiv_pos_as_xyz
  1  'x, y, z'
loop_
 _atom_site_type_symbol
 _atom_site_label
 _atom_site_symmetry_multiplicity
 _atom_site_fract_x
 _atom_site_fract_y
 _atom_site_fract_z
 _atom_site_occupancy
  Zr  Zr0  1  0.03041450  0.24426150  0.75281150  1
  Zr  Zr1  1  0.00000000  0.00000000  0.00144700  1
  Zr  Zr2  1  0.50000000  0.00000000  0.03654600  1
  Zr  Zr3  1  0.00000000  0.00000000  0.50144700  1
  Zr  Zr4  1  0.96958550  0.24426150  0.25281150  1
  Zr  Zr5  1  0.27160150  0.22839850  0.52530550  1
  Zr  Zr6  1  0.77160150  0.27160150  0.52530550  1
  Zr  Zr7  1  0.25573850  0.53041450  0.25281150  1
  Zr  Zr8  1  0.25573850  0.46958550  0.75281150  1
  Zr  Zr9  1  0.24426150  0.96958550  0.75281150  1
  Zr  Zr10  1  0.24426150  0.03041450  0.25281150  1
  Zr  Zr11  1  0.22839850  0.27160150  0.02530550  1
  Zr  Zr12  1  0.72839850  0.22839850  0.02530550  1
  Zr  Zr13  1  0.53041450  0.25573850  0.75281150  1
  Zr  Zr14  1  0.00000000  0.50000000  0.03654600  1
  Zr  Zr15  1  0.46958550  0.25573850  0.25281150  1
  Zr  Zr16  1  0.53041450  0.74426150  0.25281150  1
  Zr  Zr17  1  0.50000000  0.50000000  0.50144700  1
  Zr  Zr18  1  0.00000000  0.50000000  0.53654600  1
  Zr  Zr19  1  0.50000000  0.50000000  0.00144700  1
  Zr  Zr20  1  0.46958550  0.74426150  0.75281150  1
  Zr  Zr21  1  0.77160150  0.72839850  0.02530550  1
  Zr  Zr22  1  0.27160150  0.77160150  0.02530550  1
  Zr  Zr23  1  0.75573850  0.03041450  0.75281150  1
  Zr  Zr24  1  0.75573850  0.96958550  0.25281150  1
  Zr  Zr25  1  0.74426150  0.46958550  0.25281150  1
  Zr  Zr26  1  0.74426150  0.53041450  0.75281150  1
  Zr  Zr27  1  0.72839850  0.77160150  0.52530550  1
  Zr  Zr28  1  0.22839850  0.72839850  0.52530550  1
  Zr  Zr29  1  0.03041450  0.75573850  0.25281150  1
  Zr  Zr30  1  0.50000000  0.00000000  0.53654600  1
  Zr  Zr31  1  0.96958550  0.75573850  0.75281150  1
  N  N32  1  0.13649850  0.36350150  0.61439450  1
  N  N33  1  0.38979850  0.11020150  0.39269750  1
  N  N34  1  0.88979850  0.38979850  0.39269750  1
  N  N35  1  0.36350150  0.86350150  0.61439450  1
  N  N36  1  0.13649850  0.63649850  0.11439450  1
  N  N37  1  0.11020150  0.38979850  0.89269750  1
  N  N38  1  0.61020150  0.11020150  0.89269750  1
  N  N39  1  0.36350150  0.13649850  0.11439450  1
  N  N40  1  0.63649850  0.86350150  0.11439450  1
  N  N41  1  0.88979850  0.61020150  0.89269750  1
  N  N42  1  0.38979850  0.88979850  0.89269750  1
  N  N43  1  0.86350150  0.36350150  0.11439450  1
  N  N44  1  0.63649850  0.13649850  0.61439450  1
  N  N45  1  0.61020150  0.88979850  0.39269750  1
  N  N46  1  0.11020150  0.61020150  0.39269750  1
  N  N47  1  0.86350150  0.63649850  0.61439450  1
  O  O48  1  0.86346400  0.10390200  0.12889400  1
  O  O49  1  0.35065350  0.38302550  0.38356650  1
  O  O50  1  0.11697450  0.14934650  0.38356650  1
  O  O51  1  0.62240550  0.12240550  0.18120250  1
  O  O52  1  0.89609800  0.13653600  0.62889400  1
  O  O53  1  0.37759450  0.87759450  0.18120250  1
  O  O54  1  0.38302550  0.64934650  0.38356650  1
  O  O55  1  0.36346400  0.39609800  0.12889400  1
  O  O56  1  0.35065350  0.61697450  0.88356650  1
  O  O57  1  0.14934650  0.88302550  0.38356650  1
  O  O58  1  0.13653600  0.10390200  0.62889400  1
  O  O59  1  0.13653600  0.89609800  0.12889400  1
  O  O60  1  0.11697450  0.85065350  0.88356650  1
  O  O61  1  0.12240550  0.37759450  0.18120250  1
  O  O62  1  0.60390200  0.36346400  0.12889400  1
  O  O63  1  0.10390200  0.13653600  0.12889400  1
  O  O64  1  0.89609800  0.86346400  0.12889400  1
  O  O65  1  0.87759450  0.62240550  0.18120250  1
  O  O66  1  0.38302550  0.35065350  0.88356650  1
  O  O67  1  0.14934650  0.11697450  0.88356650  1
  O  O68  1  0.36346400  0.60390200  0.62889400  1
  O  O69  1  0.85065350  0.88302550  0.88356650  1
  O  O70  1  0.61697450  0.64934650  0.88356650  1
  O  O71  1  0.12240550  0.62240550  0.68120250  1
  O  O72  1  0.39609800  0.63653600  0.12889400  1
  O  O73  1  0.87759450  0.37759450  0.68120250  1
  O  O74  1  0.88302550  0.14934650  0.88356650  1
  O  O75  1  0.86346400  0.89609800  0.62889400  1
  O  O76  1  0.85065350  0.11697450  0.38356650  1
  O  O77  1  0.64934650  0.38302550  0.88356650  1
  O  O78  1  0.63653600  0.60390200  0.12889400  1
  O  O79  1  0.63653600  0.39609800  0.62889400  1
  O  O80  1  0.61697450  0.35065350  0.38356650  1
  O  O81  1  0.62240550  0.87759450  0.68120250  1
  O  O82  1  0.10390200  0.86346400  0.62889400  1
  O  O83  1  0.60390200  0.63653600  0.62889400  1
  O  O84  1  0.39609800  0.36346400  0.62889400  1
  O  O85  1  0.37759450  0.12240550  0.68120250  1
  O  O86  1  0.88302550  0.85065350  0.38356650  1
  O  O87  1  0.64934650  0.61697450  0.38356650  1
