# generated using pymatgen
data_Li3Bi(PO4)2
_symmetry_space_group_name_H-M   'P 1'
_cell_length_a   8.68890400
_cell_length_b   5.74160600
_cell_length_c   6.38103847
_cell_angle_alpha   90.00000000
_cell_angle_beta   92.15894416
_cell_angle_gamma   90.00000000
_symmetry_Int_Tables_number   1
_chemical_formula_structural   Li3Bi(PO4)2
_chemical_formula_sum   'Li6 Bi2 P4 O16'
_cell_volume   318.11296018
_cell_formula_units_Z   2
loop_
 _symmetry_equiv_pos_site_id
 _symmetry_equiv_pos_as_xyz
  1  'x, y, z'
loop_
 _atom_site_type_symbol
 _atom_site_label
 _atom_site_symmetry_multiplicity
 _atom_site_fract_x
 _atom_site_fract_y
 _atom_site_fract_z
 _atom_site_occupancy
  Li  Li0  1  0.34065300  0.00000000  0.20479400  1
  Li  Li1  1  0.00000000  0.00000000  0.00000000  1
  Li  Li2  1  0.65934700  0.00000000  0.79520600  1
  Li  Li3  1  0.84065300  0.50000000  0.20479400  1
  Li  Li4  1  0.50000000  0.50000000  0.00000000  1
  Li  Li5  1  0.15934700  0.50000000  0.79520600  1
  Bi  Bi6  1  0.00000000  0.00000000  0.50000000  1
  Bi  Bi7  1  0.50000000  0.50000000  0.50000000  1
  P  P8  1  0.35633300  0.00000000  0.74479800  1
  P  P9  1  0.64366700  0.00000000  0.25520200  1
  P  P10  1  0.85633300  0.50000000  0.74479800  1
  P  P11  1  0.14366700  0.50000000  0.25520200  1
  O  O12  1  0.76382300  0.00000000  0.08699200  1
  O  O13  1  0.72288600  0.00000000  0.48157100  1
  O  O14  1  0.46782300  0.21588600  0.76664400  1
  O  O15  1  0.46782300  0.78411400  0.76664400  1
  O  O16  1  0.53217700  0.21588600  0.23335600  1
  O  O17  1  0.53217700  0.78411400  0.23335600  1
  O  O18  1  0.27711400  0.00000000  0.51842900  1
  O  O19  1  0.23617700  0.00000000  0.91300800  1
  O  O20  1  0.26382300  0.50000000  0.08699200  1
  O  O21  1  0.22288600  0.50000000  0.48157100  1
  O  O22  1  0.96782300  0.71588600  0.76664400  1
  O  O23  1  0.96782300  0.28411400  0.76664400  1
  O  O24  1  0.03217700  0.71588600  0.23335600  1
  O  O25  1  0.03217700  0.28411400  0.23335600  1
  O  O26  1  0.77711400  0.50000000  0.51842900  1
  O  O27  1  0.73617700  0.50000000  0.91300800  1
