# generated using pymatgen
data_LiSiNiO4
_symmetry_space_group_name_H-M   'P 1'
_cell_length_a   5.41285362
_cell_length_b   5.69844415
_cell_length_c   8.37274700
_cell_angle_alpha   90.00000000
_cell_angle_beta   90.00000000
_cell_angle_gamma   90.00000000
_symmetry_Int_Tables_number   1
_chemical_formula_structural   LiSiNiO4
_chemical_formula_sum   'Li4 Si4 Ni4 O16'
_cell_volume   258.25607548
_cell_formula_units_Z   4
loop_
 _symmetry_equiv_pos_site_id
 _symmetry_equiv_pos_as_xyz
  1  'x, y, z'
loop_
 _atom_site_type_symbol
 _atom_site_label
 _atom_site_symmetry_multiplicity
 _atom_site_fract_x
 _atom_site_fract_y
 _atom_site_fract_z
 _atom_site_occupancy
  Li  Li0  1  0.50000000  0.25000000  0.37699150  1
  Li  Li1  1  0.50000000  0.75000000  0.62300850  1
  Li  Li2  1  0.00000000  0.75000000  0.87699150  1
  Li  Li3  1  0.00000000  0.25000000  0.12300850  1
  Si  Si4  1  0.75000000  0.25000000  0.75000000  1
  Si  Si5  1  0.25000000  0.25000000  0.75000000  1
  Si  Si6  1  0.25000000  0.75000000  0.25000000  1
  Si  Si7  1  0.75000000  0.75000000  0.25000000  1
  Ni  Ni8  1  0.00000000  0.50000000  0.50000000  1
  Ni  Ni9  1  0.00000000  0.00000000  0.50000000  1
  Ni  Ni10  1  0.50000000  0.00000000  0.00000000  1
  Ni  Ni11  1  0.50000000  0.50000000  0.00000000  1
  O  O12  1  0.50000000  0.03914450  0.74881500  1
  O  O13  1  0.23288250  0.75000000  0.46806300  1
  O  O14  1  0.23288250  0.25000000  0.53193700  1
  O  O15  1  0.76711750  0.25000000  0.53193700  1
  O  O16  1  0.00000000  0.46085550  0.75118500  1
  O  O17  1  0.00000000  0.03914450  0.75118500  1
  O  O18  1  0.50000000  0.46085550  0.74881500  1
  O  O19  1  0.76711750  0.75000000  0.46806300  1
  O  O20  1  0.00000000  0.53914450  0.24881500  1
  O  O21  1  0.73288250  0.25000000  0.96806300  1
  O  O22  1  0.73288250  0.75000000  0.03193700  1
  O  O23  1  0.26711750  0.75000000  0.03193700  1
  O  O24  1  0.50000000  0.96085550  0.25118500  1
  O  O25  1  0.50000000  0.53914450  0.25118500  1
  O  O26  1  0.00000000  0.96085550  0.24881500  1
  O  O27  1  0.26711750  0.25000000  0.96806300  1
