# generated using pymatgen
data_Zr2N2O
_symmetry_space_group_name_H-M   'P 1'
_cell_length_a   10.76304200
_cell_length_b   3.27441400
_cell_length_c   17.19992127
_cell_angle_alpha   90.00000000
_cell_angle_beta   105.65467434
_cell_angle_gamma   90.00000000
_symmetry_Int_Tables_number   1
_chemical_formula_structural   Zr2N2O
_chemical_formula_sum   'Zr16 N16 O8'
_cell_volume   583.68529935
_cell_formula_units_Z   8
loop_
 _symmetry_equiv_pos_site_id
 _symmetry_equiv_pos_as_xyz
  1  'x, y, z'
loop_
 _atom_site_type_symbol
 _atom_site_label
 _atom_site_symmetry_multiplicity
 _atom_site_fract_x
 _atom_site_fract_y
 _atom_site_fract_z
 _atom_site_occupancy
  Zr  Zr0  1  0.76026200  0.00000000  0.08532300  1
  Zr  Zr1  1  0.00138400  0.00000000  0.33181700  1
  Zr  Zr2  1  0.22615100  0.00000000  0.57539300  1
  Zr  Zr3  1  0.99861600  0.00000000  0.66818300  1
  Zr  Zr4  1  0.23973800  0.00000000  0.91467700  1
  Zr  Zr5  1  0.73134500  0.50000000  0.24341500  1
  Zr  Zr6  1  0.77384900  0.00000000  0.42460700  1
  Zr  Zr7  1  0.26865500  0.50000000  0.75658500  1
  Zr  Zr8  1  0.26026200  0.50000000  0.08532300  1
  Zr  Zr9  1  0.50138400  0.50000000  0.33181700  1
  Zr  Zr10  1  0.72615100  0.50000000  0.57539300  1
  Zr  Zr11  1  0.49861600  0.50000000  0.66818300  1
  Zr  Zr12  1  0.73973800  0.50000000  0.91467700  1
  Zr  Zr13  1  0.23134500  0.00000000  0.24341500  1
  Zr  Zr14  1  0.27384900  0.50000000  0.42460700  1
  Zr  Zr15  1  0.76865500  0.00000000  0.75658500  1
  N  N16  1  0.84513200  0.00000000  0.21775700  1
  N  N17  1  0.15486800  0.00000000  0.78224300  1
  N  N18  1  0.15559600  0.00000000  0.44640800  1
  N  N19  1  0.87807400  0.50000000  0.70311800  1
  N  N20  1  0.11864800  0.50000000  0.63079700  1
  N  N21  1  0.88135200  0.50000000  0.36920300  1
  N  N22  1  0.84440400  0.00000000  0.55359200  1
  N  N23  1  0.12192600  0.50000000  0.29688200  1
  N  N24  1  0.34513200  0.50000000  0.21775700  1
  N  N25  1  0.65486800  0.50000000  0.78224300  1
  N  N26  1  0.65559600  0.50000000  0.44640800  1
  N  N27  1  0.37807400  0.00000000  0.70311800  1
  N  N28  1  0.61864800  0.00000000  0.63079700  1
  N  N29  1  0.38135200  0.00000000  0.36920300  1
  N  N30  1  0.34440400  0.50000000  0.55359200  1
  N  N31  1  0.62192600  0.00000000  0.29688200  1
  O  O32  1  0.15297700  0.50000000  0.95737600  1
  O  O33  1  0.84702300  0.50000000  0.04262400  1
  O  O34  1  0.65459700  0.50000000  0.11864400  1
  O  O35  1  0.34540300  0.50000000  0.88135600  1
  O  O36  1  0.65297700  0.00000000  0.95737600  1
  O  O37  1  0.34702300  0.00000000  0.04262400  1
  O  O38  1  0.15459700  0.00000000  0.11864400  1
  O  O39  1  0.84540300  0.00000000  0.88135600  1
