# generated using pymatgen
data_Y(BiO2)3
_symmetry_space_group_name_H-M   'P 1'
_cell_length_a   10.15837037
_cell_length_b   10.15837037
_cell_length_c   11.54635640
_cell_angle_alpha   90.00000000
_cell_angle_beta   90.00000000
_cell_angle_gamma   120.00000000
_symmetry_Int_Tables_number   1
_chemical_formula_structural   Y(BiO2)3
_chemical_formula_sum   'Y6 Bi18 O36'
_cell_volume   1031.86688778
_cell_formula_units_Z   6
loop_
 _symmetry_equiv_pos_site_id
 _symmetry_equiv_pos_as_xyz
  1  'x, y, z'
loop_
 _atom_site_type_symbol
 _atom_site_label
 _atom_site_symmetry_multiplicity
 _atom_site_fract_x
 _atom_site_fract_y
 _atom_site_fract_z
 _atom_site_occupancy
  Y  Y0  1  0.00000000  0.00000000  0.00000000  1
  Y  Y1  1  0.00000000  0.00000000  0.50000000  1
  Y  Y2  1  0.66666667  0.33333333  0.33333333  1
  Y  Y3  1  0.66666667  0.33333333  0.83333333  1
  Y  Y4  1  0.33333333  0.66666667  0.66666667  1
  Y  Y5  1  0.33333333  0.66666667  0.16666667  1
  Bi  Bi6  1  0.73789133  0.77781867  0.70931767  1
  Bi  Bi7  1  0.22218133  0.96007267  0.70931767  1
  Bi  Bi8  1  0.96007267  0.73789133  0.29068233  1
  Bi  Bi9  1  0.03992733  0.26210867  0.70931767  1
  Bi  Bi10  1  0.77781867  0.03992733  0.29068233  1
  Bi  Bi11  1  0.26210867  0.22218133  0.29068233  1
  Bi  Bi12  1  0.40455800  0.11115200  0.04265100  1
  Bi  Bi13  1  0.88884800  0.29340600  0.04265100  1
  Bi  Bi14  1  0.62673933  0.07122467  0.62401567  1
  Bi  Bi15  1  0.70659400  0.59544200  0.04265100  1
  Bi  Bi16  1  0.44448533  0.37326067  0.62401567  1
  Bi  Bi17  1  0.92877533  0.55551467  0.62401567  1
  Bi  Bi18  1  0.07122467  0.44448533  0.37598433  1
  Bi  Bi19  1  0.55551467  0.62673933  0.37598433  1
  Bi  Bi20  1  0.29340600  0.40455800  0.95734900  1
  Bi  Bi21  1  0.37326067  0.92877533  0.37598433  1
  Bi  Bi22  1  0.11115200  0.70659400  0.95734900  1
  Bi  Bi23  1  0.59544200  0.88884800  0.95734900  1
  O  O24  1  0.87230767  0.51033333  0.43669933  1
  O  O25  1  0.51033333  0.63802567  0.56330067  1
  O  O26  1  0.97124967  0.81659333  0.62887533  1
  O  O27  1  0.36197433  0.87230767  0.56330067  1
  O  O28  1  0.84534367  0.02875033  0.62887533  1
  O  O29  1  0.81659333  0.84534367  0.37112467  1
  O  O30  1  0.18340667  0.15465633  0.62887533  1
  O  O31  1  0.15465633  0.97124967  0.37112467  1
  O  O32  1  0.63802567  0.12769233  0.43669933  1
  O  O33  1  0.02875033  0.18340667  0.37112467  1
  O  O34  1  0.48966667  0.36197433  0.43669933  1
  O  O35  1  0.12769233  0.48966667  0.56330067  1
  O  O36  1  0.53897433  0.84366667  0.77003267  1
  O  O37  1  0.17700000  0.97135900  0.89663400  1
  O  O38  1  0.63791633  0.14992667  0.96220867  1
  O  O39  1  0.02864100  0.20564100  0.89663400  1
  O  O40  1  0.51201033  0.36208367  0.96220867  1
  O  O41  1  0.48326000  0.17867700  0.70445800  1
  O  O42  1  0.85007333  0.48798967  0.96220867  1
  O  O43  1  0.82132300  0.30458300  0.70445800  1
  O  O44  1  0.30469233  0.46102567  0.77003267  1
  O  O45  1  0.69541700  0.51674000  0.70445800  1
  O  O46  1  0.15633333  0.69530767  0.77003267  1
  O  O47  1  0.79435900  0.82300000  0.89663400  1
  O  O48  1  0.20564100  0.17700000  0.10336600  1
  O  O49  1  0.84366667  0.30469233  0.22996733  1
  O  O50  1  0.30458300  0.48326000  0.29554200  1
  O  O51  1  0.69530767  0.53897433  0.22996733  1
  O  O52  1  0.17867700  0.69541700  0.29554200  1
  O  O53  1  0.14992667  0.51201033  0.03779133  1
  O  O54  1  0.51674000  0.82132300  0.29554200  1
  O  O55  1  0.48798967  0.63791633  0.03779133  1
  O  O56  1  0.97135900  0.79435900  0.10336600  1
  O  O57  1  0.36208367  0.85007333  0.03779133  1
  O  O58  1  0.82300000  0.02864100  0.10336600  1
  O  O59  1  0.46102567  0.15633333  0.22996733  1
