# generated using pymatgen
data_Li4Al3Cr3(SbO8)2
_symmetry_space_group_name_H-M   'P 1'
_cell_length_a   10.16943621
_cell_length_b   5.84903729
_cell_length_c   9.58008402
_cell_angle_alpha   90.00000000
_cell_angle_beta   90.53829910
_cell_angle_gamma   90.00000000
_symmetry_Int_Tables_number   1
_chemical_formula_structural   Li4Al3Cr3(SbO8)2
_chemical_formula_sum   'Li8 Al6 Cr6 Sb4 O32'
_cell_volume   569.81177191
_cell_formula_units_Z   2
loop_
 _symmetry_equiv_pos_site_id
 _symmetry_equiv_pos_as_xyz
  1  'x, y, z'
loop_
 _atom_site_type_symbol
 _atom_site_label
 _atom_site_symmetry_multiplicity
 _atom_site_fract_x
 _atom_site_fract_y
 _atom_site_fract_z
 _atom_site_occupancy
  Li  Li0  1  0.33163675  0.00000000  0.90480700  1
  Li  Li1  1  0.00219450  0.00000000  0.98591450  1
  Li  Li2  1  0.00193400  0.00000000  0.48956850  1
  Li  Li3  1  0.16569525  0.50000000  0.40752400  1
  Li  Li4  1  0.83163675  0.50000000  0.90480700  1
  Li  Li5  1  0.50219450  0.50000000  0.98591450  1
  Li  Li6  1  0.50193400  0.50000000  0.48956850  1
  Li  Li7  1  0.66569525  0.00000000  0.40752400  1
  Al  Al8  1  0.17029900  0.00000000  0.21476200  1
  Al  Al9  1  0.08427600  0.74435200  0.71441050  1
  Al  Al10  1  0.08427600  0.25564800  0.71441050  1
  Al  Al11  1  0.67029900  0.50000000  0.21476200  1
  Al  Al12  1  0.58427600  0.24435200  0.71441050  1
  Al  Al13  1  0.58427600  0.75564800  0.71441050  1
  Cr  Cr14  1  0.32927100  0.50000000  0.71364500  1
  Cr  Cr15  1  0.41458650  0.24632600  0.21365600  1
  Cr  Cr16  1  0.41458650  0.75367400  0.21365600  1
  Cr  Cr17  1  0.82927100  0.00000000  0.71364500  1
  Cr  Cr18  1  0.91458650  0.74632600  0.21365600  1
  Cr  Cr19  1  0.91458650  0.25367400  0.21365600  1
  Sb  Sb20  1  0.33246250  0.00000000  0.48848900  1
  Sb  Sb21  1  0.16467525  0.50000000  0.98565100  1
  Sb  Sb22  1  0.83246250  0.50000000  0.48848900  1
  Sb  Sb23  1  0.66467525  0.00000000  0.98565100  1
  O  O24  1  0.48205950  0.00000000  0.34425650  1
  O  O25  1  0.32325125  0.00000000  0.11093700  1
  O  O26  1  0.01106875  0.00000000  0.30358750  1
  O  O27  1  0.00881950  0.00000000  0.79792550  1
  O  O28  1  0.33689575  0.50000000  0.09093950  1
  O  O29  1  0.16634750  0.00000000  0.60139100  1
  O  O30  1  0.15700775  0.50000000  0.61402900  1
  O  O31  1  0.01607800  0.50000000  0.84016650  1
  O  O32  1  0.42191450  0.25118200  0.59829400  1
  O  O33  1  0.42191450  0.74881800  0.59829400  1
  O  O34  1  0.25672475  0.22292875  0.34235750  1
  O  O35  1  0.25672475  0.77707125  0.34235750  1
  O  O36  1  0.23712100  0.72571050  0.84040100  1
  O  O37  1  0.23712100  0.27428950  0.84040100  1
  O  O38  1  0.08577500  0.75568600  0.09798350  1
  O  O39  1  0.08577500  0.24431400  0.09798350  1
  O  O40  1  0.98205950  0.50000000  0.34425650  1
  O  O41  1  0.82325125  0.50000000  0.11093700  1
  O  O42  1  0.51106875  0.50000000  0.30358750  1
  O  O43  1  0.50881950  0.50000000  0.79792550  1
  O  O44  1  0.83689575  0.00000000  0.09093950  1
  O  O45  1  0.66634750  0.50000000  0.60139100  1
  O  O46  1  0.65700775  0.00000000  0.61402900  1
  O  O47  1  0.51607800  0.00000000  0.84016650  1
  O  O48  1  0.92191450  0.75118200  0.59829400  1
  O  O49  1  0.92191450  0.24881800  0.59829400  1
  O  O50  1  0.75672475  0.72292875  0.34235750  1
  O  O51  1  0.75672475  0.27707125  0.34235750  1
  O  O52  1  0.73712100  0.22571050  0.84040100  1
  O  O53  1  0.73712100  0.77428950  0.84040100  1
  O  O54  1  0.58577500  0.25568600  0.09798350  1
  O  O55  1  0.58577500  0.74431400  0.09798350  1
