# generated using pymatgen
data_Sr5W3O14
_symmetry_space_group_name_H-M   'P 1'
_cell_length_a   10.91244000
_cell_length_b   10.83326800
_cell_length_c   11.07539256
_cell_angle_alpha   90.00000000
_cell_angle_beta   90.11038689
_cell_angle_gamma   90.00000000
_symmetry_Int_Tables_number   1
_chemical_formula_structural   Sr5W3O14
_chemical_formula_sum   'Sr20 W12 O56'
_cell_volume   1309.30153849
_cell_formula_units_Z   4
loop_
 _symmetry_equiv_pos_site_id
 _symmetry_equiv_pos_as_xyz
  1  'x, y, z'
loop_
 _atom_site_type_symbol
 _atom_site_label
 _atom_site_symmetry_multiplicity
 _atom_site_fract_x
 _atom_site_fract_y
 _atom_site_fract_z
 _atom_site_occupancy
  Sr  Sr0  1  0.74604550  0.24669550  0.49452400  1
  Sr  Sr1  1  0.74604550  0.75330450  0.99452400  1
  Sr  Sr2  1  0.24939800  0.99815000  0.77398800  1
  Sr  Sr3  1  0.24939800  0.00185000  0.27398800  1
  Sr  Sr4  1  0.50924150  0.76305950  0.73885200  1
  Sr  Sr5  1  0.50924150  0.23694050  0.23885200  1
  Sr  Sr6  1  0.50046600  0.73704000  0.25009400  1
  Sr  Sr7  1  0.50046600  0.26296000  0.75009400  1
  Sr  Sr8  1  0.74927100  0.00337900  0.72381100  1
  Sr  Sr9  1  0.74927100  0.99662100  0.22381100  1
  Sr  Sr10  1  0.24604550  0.74669550  0.49452400  1
  Sr  Sr11  1  0.24604550  0.25330450  0.99452400  1
  Sr  Sr12  1  0.74939800  0.49815000  0.77398800  1
  Sr  Sr13  1  0.74939800  0.50185000  0.27398800  1
  Sr  Sr14  1  0.00924150  0.26305950  0.73885200  1
  Sr  Sr15  1  0.00924150  0.73694050  0.23885200  1
  Sr  Sr16  1  0.00046600  0.23704000  0.25009400  1
  Sr  Sr17  1  0.00046600  0.76296000  0.75009400  1
  Sr  Sr18  1  0.24927100  0.50337900  0.72381100  1
  Sr  Sr19  1  0.24927100  0.49662100  0.22381100  1
  W  W20  1  0.25335850  0.74961650  0.99874400  1
  W  W21  1  0.25335850  0.25038350  0.49874400  1
  W  W22  1  0.50095650  0.00161650  0.99858500  1
  W  W23  1  0.50095650  0.99838350  0.49858500  1
  W  W24  1  0.50036150  0.49691550  0.99741600  1
  W  W25  1  0.50036150  0.50308450  0.49741600  1
  W  W26  1  0.75335850  0.24961650  0.99874400  1
  W  W27  1  0.75335850  0.75038350  0.49874400  1
  W  W28  1  0.00095650  0.50161650  0.99858500  1
  W  W29  1  0.00095650  0.49838350  0.49858500  1
  W  W30  1  0.00036150  0.99691550  0.99741600  1
  W  W31  1  0.00036150  0.00308450  0.49741600  1
  O  O32  1  0.24490500  0.20534800  0.66624800  1
  O  O33  1  0.24490500  0.79465200  0.16624800  1
  O  O34  1  0.62388150  0.87312450  0.54296900  1
  O  O35  1  0.62388150  0.12687550  0.04296900  1
  O  O36  1  0.62299500  0.37183800  0.95607200  1
  O  O37  1  0.62299500  0.62816200  0.45607200  1
  O  O38  1  0.59976600  0.92937500  0.87169300  1
  O  O39  1  0.59976600  0.07062500  0.37169300  1
  O  O40  1  0.09763300  0.93181900  0.62533900  1
  O  O41  1  0.09763300  0.06818100  0.12533900  1
  O  O42  1  0.58348350  0.11326850  0.60685700  1
  O  O43  1  0.58348350  0.88673150  0.10685700  1
  O  O44  1  0.58126600  0.61072400  0.88812500  1
  O  O45  1  0.58126600  0.38927600  0.38812500  1
  O  O46  1  0.41394800  0.88896300  0.38887500  1
  O  O47  1  0.41394800  0.11103700  0.88887500  1
  O  O48  1  0.41199750  0.38682950  0.10653500  1
  O  O49  1  0.41199750  0.61317050  0.60653500  1
  O  O50  1  0.39878350  0.06914650  0.12446900  1
  O  O51  1  0.39878350  0.93085350  0.62446900  1
  O  O52  1  0.89616800  0.07217000  0.37248100  1
  O  O53  1  0.89616800  0.92783000  0.87248100  1
  O  O54  1  0.37543750  0.87128550  0.95588100  1
  O  O55  1  0.37543750  0.12871450  0.45588100  1
  O  O56  1  0.37503550  0.37254750  0.54158400  1
  O  O57  1  0.37503550  0.62745250  0.04158400  1
  O  O58  1  0.74238900  0.20619400  0.83174800  1
  O  O59  1  0.74238900  0.79380600  0.33174800  1
  O  O60  1  0.74490500  0.70534800  0.66624800  1
  O  O61  1  0.74490500  0.29465200  0.16624800  1
  O  O62  1  0.12388150  0.37312450  0.54296900  1
  O  O63  1  0.12388150  0.62687550  0.04296900  1
  O  O64  1  0.12299500  0.87183800  0.95607200  1
  O  O65  1  0.12299500  0.12816200  0.45607200  1
  O  O66  1  0.09976600  0.42937500  0.87169300  1
  O  O67  1  0.09976600  0.57062500  0.37169300  1
  O  O68  1  0.59763300  0.43181900  0.62533900  1
  O  O69  1  0.59763300  0.56818100  0.12533900  1
  O  O70  1  0.08348350  0.61326850  0.60685700  1
  O  O71  1  0.08348350  0.38673150  0.10685700  1
  O  O72  1  0.08126600  0.11072400  0.88812500  1
  O  O73  1  0.08126600  0.88927600  0.38812500  1
  O  O74  1  0.91394800  0.38896300  0.38887500  1
  O  O75  1  0.91394800  0.61103700  0.88887500  1
  O  O76  1  0.91199750  0.88682950  0.10653500  1
  O  O77  1  0.91199750  0.11317050  0.60653500  1
  O  O78  1  0.89878350  0.56914650  0.12446900  1
  O  O79  1  0.89878350  0.43085350  0.62446900  1
  O  O80  1  0.39616800  0.57217000  0.37248100  1
  O  O81  1  0.39616800  0.42783000  0.87248100  1
  O  O82  1  0.87543750  0.37128550  0.95588100  1
  O  O83  1  0.87543750  0.62871450  0.45588100  1
  O  O84  1  0.87503550  0.87254750  0.54158400  1
  O  O85  1  0.87503550  0.12745250  0.04158400  1
  O  O86  1  0.24238900  0.70619400  0.83174800  1
  O  O87  1  0.24238900  0.29380600  0.33174800  1
