# generated using pymatgen
data_SnBO3
_symmetry_space_group_name_H-M   'P 1'
_cell_length_a   5.37178200
_cell_length_b   8.90796400
_cell_length_c   12.49287574
_cell_angle_alpha   90.00000000
_cell_angle_beta   102.13127958
_cell_angle_gamma   90.00000000
_symmetry_Int_Tables_number   1
_chemical_formula_structural   SnBO3
_chemical_formula_sum   'Sn8 B8 O24'
_cell_volume   584.45481904
_cell_formula_units_Z   8
loop_
 _symmetry_equiv_pos_site_id
 _symmetry_equiv_pos_as_xyz
  1  'x, y, z'
loop_
 _atom_site_type_symbol
 _atom_site_label
 _atom_site_symmetry_multiplicity
 _atom_site_fract_x
 _atom_site_fract_y
 _atom_site_fract_z
 _atom_site_occupancy
  Sn  Sn0  1  0.26189900  0.87786700  0.37421400  1
  Sn  Sn1  1  0.67211600  0.82068500  0.12998700  1
  Sn  Sn2  1  0.26189900  0.12213300  0.87421400  1
  Sn  Sn3  1  0.67211600  0.17931500  0.62998700  1
  Sn  Sn4  1  0.76189900  0.37786700  0.37421400  1
  Sn  Sn5  1  0.17211600  0.32068500  0.12998700  1
  Sn  Sn6  1  0.76189900  0.62213300  0.87421400  1
  Sn  Sn7  1  0.17211600  0.67931500  0.62998700  1
  B  B8  1  0.32222450  0.79499550  0.87785300  1
  B  B9  1  0.68214450  0.84010650  0.62835300  1
  B  B10  1  0.32222450  0.20500450  0.37785300  1
  B  B11  1  0.68214450  0.15989350  0.12835300  1
  B  B12  1  0.82222450  0.29499550  0.87785300  1
  B  B13  1  0.18214450  0.34010650  0.62835300  1
  B  B14  1  0.82222450  0.70500450  0.37785300  1
  B  B15  1  0.18214450  0.65989350  0.12835300  1
  O  O16  1  0.31518300  0.79305300  0.15457700  1
  O  O17  1  0.41800300  0.84140300  0.60618500  1
  O  O18  1  0.13084950  0.89413750  0.87222100  1
  O  O19  1  0.54195400  0.78785500  0.96158900  1
  O  O20  1  0.34385350  0.31342250  0.29745200  1
  O  O21  1  0.13084950  0.10586250  0.37222100  1
  O  O22  1  0.81023250  0.97225150  0.62131800  1
  O  O23  1  0.31518300  0.20694700  0.65457700  1
  O  O24  1  0.41800300  0.15859700  0.10618500  1
  O  O25  1  0.81023250  0.02774850  0.12131800  1
  O  O26  1  0.54195400  0.21214500  0.46158900  1
  O  O27  1  0.34385350  0.68657750  0.79745200  1
  O  O28  1  0.81518300  0.29305300  0.15457700  1
  O  O29  1  0.91800300  0.34140300  0.60618500  1
  O  O30  1  0.63084950  0.39413750  0.87222100  1
  O  O31  1  0.04195400  0.28785500  0.96158900  1
  O  O32  1  0.84385350  0.81342250  0.29745200  1
  O  O33  1  0.63084950  0.60586250  0.37222100  1
  O  O34  1  0.31023250  0.47225150  0.62131800  1
  O  O35  1  0.81518300  0.70694700  0.65457700  1
  O  O36  1  0.91800300  0.65859700  0.10618500  1
  O  O37  1  0.31023250  0.52774850  0.12131800  1
  O  O38  1  0.04195400  0.71214500  0.46158900  1
  O  O39  1  0.84385350  0.18657750  0.79745200  1
