# generated using pymatgen
data_Na3Sb(PO4)2
_symmetry_space_group_name_H-M   'P 1'
_cell_length_a   14.12780700
_cell_length_b   5.39379900
_cell_length_c   20.12593783
_cell_angle_alpha   90.00000000
_cell_angle_beta   110.42922717
_cell_angle_gamma   90.00000000
_symmetry_Int_Tables_number   1
_chemical_formula_structural   Na3Sb(PO4)2
_chemical_formula_sum   'Na24 Sb8 P16 O64'
_cell_volume   1437.18758478
_cell_formula_units_Z   8
loop_
 _symmetry_equiv_pos_site_id
 _symmetry_equiv_pos_as_xyz
  1  'x, y, z'
loop_
 _atom_site_type_symbol
 _atom_site_label
 _atom_site_symmetry_multiplicity
 _atom_site_fract_x
 _atom_site_fract_y
 _atom_site_fract_z
 _atom_site_occupancy
  Na  Na0  1  0.31137300  0.74349700  0.96491600  1
  Na  Na1  1  0.20119800  0.24920600  0.86387000  1
  Na  Na2  1  0.05398100  0.70473700  0.80028900  1
  Na  Na3  1  0.81137300  0.75650300  0.96491600  1
  Na  Na4  1  0.70119800  0.25079400  0.86387000  1
  Na  Na5  1  0.55398100  0.79526300  0.80028900  1
  Na  Na6  1  0.25029100  0.24319000  0.69772800  1
  Na  Na7  1  0.33926500  0.75473500  0.63828600  1
  Na  Na8  1  0.75029100  0.25681000  0.69772800  1
  Na  Na9  1  0.34488500  0.24511500  0.53458900  1
  Na  Na10  1  0.83926500  0.74526500  0.63828600  1
  Na  Na11  1  0.15511500  0.74511500  0.46541100  1
  Na  Na12  1  0.84488500  0.25488500  0.53458900  1
  Na  Na13  1  0.16073500  0.25473500  0.36171400  1
  Na  Na14  1  0.65511500  0.75488500  0.46541100  1
  Na  Na15  1  0.24970900  0.74319000  0.30227200  1
  Na  Na16  1  0.66073500  0.24526500  0.36171400  1
  Na  Na17  1  0.74970900  0.75681000  0.30227200  1
  Na  Na18  1  0.44601900  0.20473700  0.19971100  1
  Na  Na19  1  0.29880200  0.74920600  0.13613000  1
  Na  Na20  1  0.18862700  0.24349700  0.03508400  1
  Na  Na21  1  0.94601900  0.29526300  0.19971100  1
  Na  Na22  1  0.79880200  0.75079400  0.13613000  1
  Na  Na23  1  0.68862700  0.25650300  0.03508400  1
  Sb  Sb24  1  0.46346600  0.31205200  0.87497800  1
  Sb  Sb25  1  0.96346600  0.18794800  0.87497800  1
  Sb  Sb26  1  0.08735500  0.70299600  0.62328200  1
  Sb  Sb27  1  0.58735500  0.79700400  0.62328200  1
  Sb  Sb28  1  0.41264500  0.20299600  0.37671800  1
  Sb  Sb29  1  0.91264500  0.29700400  0.37671800  1
  Sb  Sb30  1  0.03653400  0.81205200  0.12502200  1
  Sb  Sb31  1  0.53653400  0.68794800  0.12502200  1
  P  P32  1  0.07895800  0.72589100  0.95841800  1
  P  P33  1  0.57895800  0.77410900  0.95841800  1
  P  P34  1  0.28779700  0.77045800  0.79140300  1
  P  P35  1  0.78779700  0.72954200  0.79140300  1
  P  P36  1  0.49627000  0.27882700  0.70811600  1
  P  P37  1  0.11882000  0.23139100  0.53972500  1
  P  P38  1  0.99627000  0.22117300  0.70811600  1
  P  P39  1  0.61882000  0.26860900  0.53972500  1
  P  P40  1  0.38118000  0.73139100  0.46027500  1
  P  P41  1  0.00373000  0.77882700  0.29188400  1
  P  P42  1  0.88118000  0.76860900  0.46027500  1
  P  P43  1  0.50373000  0.72117300  0.29188400  1
  P  P44  1  0.21220300  0.27045800  0.20859700  1
  P  P45  1  0.71220300  0.22954200  0.20859700  1
  P  P46  1  0.42104200  0.22589100  0.04158200  1
  P  P47  1  0.92104200  0.27410900  0.04158200  1
  O  O48  1  0.08342800  0.48368300  0.91569600  1
  O  O49  1  0.09086400  0.95364800  0.90895000  1
  O  O50  1  0.32500300  0.23309200  0.97514600  1
  O  O51  1  0.47782200  0.74181900  0.96806800  1
  O  O52  1  0.01554900  0.26577600  0.79066300  1
  O  O53  1  0.23140300  0.65708900  0.83646700  1
  O  O54  1  0.58342800  0.01631700  0.91569600  1
  O  O55  1  0.59086400  0.54635200  0.90895000  1
  O  O56  1  0.82500300  0.26690800  0.97514600  1
  O  O57  1  0.30568000  0.05127400  0.80576900  1
  O  O58  1  0.97782200  0.75818100  0.96806800  1
  O  O59  1  0.38919900  0.63296500  0.80111700  1
  O  O60  1  0.00675800  0.94015400  0.69703000  1
  O  O61  1  0.08361100  0.36857500  0.69604500  1
  O  O62  1  0.51554900  0.23422400  0.79066300  1
  O  O63  1  0.73140300  0.84291100  0.83646700  1
  O  O64  1  0.22616900  0.74149200  0.70812500  1
  O  O65  1  0.80568000  0.44872600  0.80576900  1
  O  O66  1  0.88919900  0.86703500  0.80111700  1
  O  O67  1  0.50675800  0.55984600  0.69703000  1
  O  O68  1  0.39201800  0.17901200  0.66284900  1
  O  O69  1  0.58361100  0.13142500  0.69604500  1
  O  O70  1  0.16840600  0.99562500  0.58560100  1
  O  O71  1  0.17792300  0.46495800  0.58621800  1
  O  O72  1  0.72616900  0.75850800  0.70812500  1
  O  O73  1  0.00746100  0.25493900  0.52936400  1
  O  O74  1  0.35163100  0.73003500  0.52688900  1
  O  O75  1  0.89201800  0.32098800  0.66284900  1
  O  O76  1  0.14836900  0.23003500  0.47311100  1
  O  O77  1  0.66840600  0.50437500  0.58560100  1
  O  O78  1  0.67792300  0.03504200  0.58621800  1
  O  O79  1  0.50746100  0.24506100  0.52936400  1
  O  O80  1  0.49253900  0.75493900  0.47063600  1
  O  O81  1  0.32207700  0.96495800  0.41378200  1
  O  O82  1  0.33159400  0.49562500  0.41439900  1
  O  O83  1  0.85163100  0.76996500  0.52688900  1
  O  O84  1  0.10798200  0.67901200  0.33715100  1
  O  O85  1  0.64836900  0.26996500  0.47311100  1
  O  O86  1  0.99253900  0.74506100  0.47063600  1
  O  O87  1  0.27383100  0.24149200  0.29187500  1
  O  O88  1  0.82207700  0.53504200  0.41378200  1
  O  O89  1  0.83159400  0.00437500  0.41439900  1
  O  O90  1  0.41638900  0.86857500  0.30395500  1
  O  O91  1  0.60798200  0.82098800  0.33715100  1
  O  O92  1  0.49324200  0.44015400  0.30297000  1
  O  O93  1  0.11080100  0.13296500  0.19888300  1
  O  O94  1  0.19432000  0.55127400  0.19423100  1
  O  O95  1  0.77383100  0.25850800  0.29187500  1
  O  O96  1  0.26859700  0.15708900  0.16353300  1
  O  O97  1  0.48445100  0.76577600  0.20933700  1
  O  O98  1  0.91638900  0.63142500  0.30395500  1
  O  O99  1  0.99324200  0.05984600  0.30297000  1
  O  O100  1  0.61080100  0.36703500  0.19888300  1
  O  O101  1  0.02217800  0.24181900  0.03193200  1
  O  O102  1  0.69432000  0.94872600  0.19423100  1
  O  O103  1  0.17499700  0.73309200  0.02485400  1
  O  O104  1  0.40913600  0.45364800  0.09105000  1
  O  O105  1  0.41657200  0.98368300  0.08430400  1
  O  O106  1  0.76859700  0.34291100  0.16353300  1
  O  O107  1  0.98445100  0.73422400  0.20933700  1
  O  O108  1  0.52217800  0.25818100  0.03193200  1
  O  O109  1  0.67499700  0.76690800  0.02485400  1
  O  O110  1  0.90913600  0.04635200  0.09105000  1
  O  O111  1  0.91657200  0.51631700  0.08430400  1
