# generated using pymatgen
data_LiCr2O4
_symmetry_space_group_name_H-M   'P 1'
_cell_length_a   5.87101200
_cell_length_b   10.17349200
_cell_length_c   9.51549463
_cell_angle_alpha   90.00000000
_cell_angle_beta   90.78216285
_cell_angle_gamma   90.00000000
_symmetry_Int_Tables_number   1
_chemical_formula_structural   LiCr2O4
_chemical_formula_sum   'Li8 Cr16 O32'
_cell_volume   568.29510609
_cell_formula_units_Z   8
loop_
 _symmetry_equiv_pos_site_id
 _symmetry_equiv_pos_as_xyz
  1  'x, y, z'
loop_
 _atom_site_type_symbol
 _atom_site_label
 _atom_site_symmetry_multiplicity
 _atom_site_fract_x
 _atom_site_fract_y
 _atom_site_fract_z
 _atom_site_occupancy
  Li  Li0  1  0.00192800  0.66594200  0.10384800  1
  Li  Li1  1  0.99843200  0.99995800  0.00360700  1
  Li  Li2  1  0.49843200  0.50004200  0.50360700  1
  Li  Li3  1  0.50192800  0.83405800  0.60384800  1
  Li  Li4  1  0.50192800  0.16594200  0.10384800  1
  Li  Li5  1  0.49843200  0.49995800  0.00360700  1
  Li  Li6  1  0.99843200  0.00004200  0.50360700  1
  Li  Li7  1  0.00192800  0.33405800  0.60384800  1
  Cr  Cr8  1  0.24910850  0.58439250  0.78978300  1
  Cr  Cr9  1  0.99634350  0.66811050  0.51696900  1
  Cr  Cr10  1  0.75649450  0.58556650  0.78510300  1
  Cr  Cr11  1  0.00164700  0.83197300  0.78981400  1
  Cr  Cr12  1  0.50164700  0.66802700  0.28981400  1
  Cr  Cr13  1  0.49634350  0.83188950  0.01696900  1
  Cr  Cr14  1  0.74910850  0.91560750  0.28978300  1
  Cr  Cr15  1  0.25649450  0.91443350  0.28510300  1
  Cr  Cr16  1  0.74910850  0.08439250  0.78978300  1
  Cr  Cr17  1  0.49634350  0.16811050  0.51696900  1
  Cr  Cr18  1  0.25649450  0.08556650  0.78510300  1
  Cr  Cr19  1  0.50164700  0.33197300  0.78981400  1
  Cr  Cr20  1  0.00164700  0.16802700  0.28981400  1
  Cr  Cr21  1  0.99634350  0.33188950  0.01696900  1
  Cr  Cr22  1  0.24910850  0.41560750  0.28978300  1
  Cr  Cr23  1  0.75649450  0.41443350  0.28510300  1
  O  O24  1  0.25236100  0.58294000  0.39290400  1
  O  O25  1  0.00730350  0.52110050  0.66156500  1
  O  O26  1  0.00462650  0.66758650  0.89736000  1
  O  O27  1  0.99725750  0.99947850  0.68847600  1
  O  O28  1  0.49725750  0.50052150  0.18847600  1
  O  O29  1  0.74107100  0.58686600  0.39559800  1
  O  O30  1  0.21789850  0.73974650  0.66433400  1
  O  O31  1  0.78486750  0.74383350  0.66183100  1
  O  O32  1  0.49080900  0.66399300  0.89488900  1
  O  O33  1  0.99080900  0.83600700  0.39488900  1
  O  O34  1  0.71789850  0.76025350  0.16433400  1
  O  O35  1  0.28486750  0.75616650  0.16183100  1
  O  O36  1  0.50462650  0.83241350  0.39736000  1
  O  O37  1  0.75236100  0.91706000  0.89290400  1
  O  O38  1  0.50730350  0.97889950  0.16156500  1
  O  O39  1  0.24107100  0.91313400  0.89559800  1
  O  O40  1  0.75236100  0.08294000  0.39290400  1
  O  O41  1  0.50730350  0.02110050  0.66156500  1
  O  O42  1  0.50462650  0.16758650  0.89736000  1
  O  O43  1  0.49725750  0.49947850  0.68847600  1
  O  O44  1  0.99725750  0.00052150  0.18847600  1
  O  O45  1  0.24107100  0.08686600  0.39559800  1
  O  O46  1  0.71789850  0.23974650  0.66433400  1
  O  O47  1  0.28486750  0.24383350  0.66183100  1
  O  O48  1  0.99080900  0.16399300  0.89488900  1
  O  O49  1  0.49080900  0.33600700  0.39488900  1
  O  O50  1  0.21789850  0.26025350  0.16433400  1
  O  O51  1  0.78486750  0.25616650  0.16183100  1
  O  O52  1  0.00462650  0.33241350  0.39736000  1
  O  O53  1  0.25236100  0.41706000  0.89290400  1
  O  O54  1  0.00730350  0.47889950  0.16156500  1
  O  O55  1  0.74107100  0.41313400  0.89559800  1
