# generated using pymatgen
data_Na2TiO3
_symmetry_space_group_name_H-M   'P 1'
_cell_length_a   5.37237200
_cell_length_b   9.30993800
_cell_length_c   11.06895730
_cell_angle_alpha   90.00000000
_cell_angle_beta   99.68239932
_cell_angle_gamma   90.00000000
_symmetry_Int_Tables_number   1
_chemical_formula_structural   Na2TiO3
_chemical_formula_sum   'Na16 Ti8 O24'
_cell_volume   545.74359313
_cell_formula_units_Z   8
loop_
 _symmetry_equiv_pos_site_id
 _symmetry_equiv_pos_as_xyz
  1  'x, y, z'
loop_
 _atom_site_type_symbol
 _atom_site_label
 _atom_site_symmetry_multiplicity
 _atom_site_fract_x
 _atom_site_fract_y
 _atom_site_fract_z
 _atom_site_occupancy
  Na  Na0  1  0.76197150  0.92061950  0.50094500  1
  Na  Na1  1  0.75000000  0.75000000  0.00000000  1
  Na  Na2  1  0.50000000  0.58165700  0.75000000  1
  Na  Na3  1  0.23802850  0.92061950  0.99905500  1
  Na  Na4  1  0.25000000  0.75000000  0.50000000  1
  Na  Na5  1  0.26197150  0.57938050  0.00094500  1
  Na  Na6  1  0.00000000  0.91834300  0.25000000  1
  Na  Na7  1  0.73802850  0.57938050  0.49905500  1
  Na  Na8  1  0.26197150  0.42061950  0.50094500  1
  Na  Na9  1  0.25000000  0.25000000  0.00000000  1
  Na  Na10  1  0.00000000  0.08165700  0.75000000  1
  Na  Na11  1  0.73802850  0.42061950  0.99905500  1
  Na  Na12  1  0.75000000  0.25000000  0.50000000  1
  Na  Na13  1  0.76197150  0.07938050  0.00094500  1
  Na  Na14  1  0.50000000  0.41834300  0.25000000  1
  Na  Na15  1  0.23802850  0.07938050  0.49905500  1
  Ti  Ti16  1  0.50000000  0.75334900  0.25000000  1
  Ti  Ti17  1  0.50000000  0.91479900  0.75000000  1
  Ti  Ti18  1  0.00000000  0.58520100  0.25000000  1
  Ti  Ti19  1  0.00000000  0.74665100  0.75000000  1
  Ti  Ti20  1  0.00000000  0.25334900  0.25000000  1
  Ti  Ti21  1  0.00000000  0.41479900  0.75000000  1
  Ti  Ti22  1  0.50000000  0.08520100  0.25000000  1
  Ti  Ti23  1  0.50000000  0.24665100  0.75000000  1
  O  O24  1  0.84541500  0.89399900  0.85213300  1
  O  O25  1  0.58661050  0.91712150  0.14899100  1
  O  O26  1  0.65523500  0.77215700  0.64936200  1
  O  O27  1  0.41338950  0.91712150  0.35100900  1
  O  O28  1  0.34541500  0.60600100  0.35213300  1
  O  O29  1  0.15523500  0.72784300  0.14936200  1
  O  O30  1  0.34476500  0.77215700  0.85063800  1
  O  O31  1  0.15458500  0.89399900  0.64786700  1
  O  O32  1  0.08661050  0.58287850  0.64899100  1
  O  O33  1  0.84476500  0.72784300  0.35063800  1
  O  O34  1  0.91338950  0.58287850  0.85100900  1
  O  O35  1  0.65458500  0.60600100  0.14786700  1
  O  O36  1  0.34541500  0.39399900  0.85213300  1
  O  O37  1  0.08661050  0.41712150  0.14899100  1
  O  O38  1  0.15523500  0.27215700  0.64936200  1
  O  O39  1  0.91338950  0.41712150  0.35100900  1
  O  O40  1  0.84541500  0.10600100  0.35213300  1
  O  O41  1  0.65523500  0.22784300  0.14936200  1
  O  O42  1  0.84476500  0.27215700  0.85063800  1
  O  O43  1  0.65458500  0.39399900  0.64786700  1
  O  O44  1  0.58661050  0.08287850  0.64899100  1
  O  O45  1  0.34476500  0.22784300  0.35063800  1
  O  O46  1  0.41338950  0.08287850  0.85100900  1
  O  O47  1  0.15458500  0.10600100  0.14786700  1
