# generated using pymatgen
data_Li3Fe2CoO6
_symmetry_space_group_name_H-M   'P 1'
_cell_length_a   12.90557000
_cell_length_b   2.93353400
_cell_length_c   5.91747906
_cell_angle_alpha   90.00000000
_cell_angle_beta   104.29260113
_cell_angle_gamma   90.00000000
_symmetry_Int_Tables_number   1
_chemical_formula_structural   Li3Fe2CoO6
_chemical_formula_sum   'Li6 Fe4 Co2 O12'
_cell_volume   217.09517235
_cell_formula_units_Z   2
loop_
 _symmetry_equiv_pos_site_id
 _symmetry_equiv_pos_as_xyz
  1  'x, y, z'
loop_
 _atom_site_type_symbol
 _atom_site_label
 _atom_site_symmetry_multiplicity
 _atom_site_fract_x
 _atom_site_fract_y
 _atom_site_fract_z
 _atom_site_occupancy
  Li  Li0  1  0.33955800  0.00000000  0.66691400  1
  Li  Li1  1  0.16044200  0.50000000  0.33308600  1
  Li  Li2  1  0.00000000  0.00000000  0.00000000  1
  Li  Li3  1  0.83955800  0.50000000  0.66691400  1
  Li  Li4  1  0.66044200  0.00000000  0.33308600  1
  Li  Li5  1  0.50000000  0.50000000  0.00000000  1
  Fe  Fe6  1  0.33452200  0.00000000  0.17025300  1
  Fe  Fe7  1  0.16547800  0.50000000  0.82974700  1
  Fe  Fe8  1  0.83452200  0.50000000  0.17025300  1
  Fe  Fe9  1  0.66547800  0.00000000  0.82974700  1
  Co  Co10  1  0.00000000  0.00000000  0.50000000  1
  Co  Co11  1  0.50000000  0.50000000  0.50000000  1
  O  O12  1  0.49667500  0.00000000  0.27665300  1
  O  O13  1  0.34309700  0.50000000  0.41137600  1
  O  O14  1  0.16942300  0.00000000  0.07120700  1
  O  O15  1  0.33057700  0.50000000  0.92879300  1
  O  O16  1  0.15690300  0.00000000  0.58862400  1
  O  O17  1  0.00332500  0.50000000  0.72334700  1
  O  O18  1  0.99667500  0.50000000  0.27665300  1
  O  O19  1  0.84309700  0.00000000  0.41137600  1
  O  O20  1  0.66942300  0.50000000  0.07120700  1
  O  O21  1  0.83057700  0.00000000  0.92879300  1
  O  O22  1  0.65690300  0.50000000  0.58862400  1
  O  O23  1  0.50332500  0.00000000  0.72334700  1
