# generated using pymatgen
data_Li3Mn3CrO8
_symmetry_space_group_name_H-M   'P 1'
_cell_length_a   5.96390400
_cell_length_b   10.09073800
_cell_length_c   9.50882021
_cell_angle_alpha   90.00000000
_cell_angle_beta   90.85762308
_cell_angle_gamma   90.00000000
_symmetry_Int_Tables_number   1
_chemical_formula_structural   Li3Mn3CrO8
_chemical_formula_sum   'Li12 Mn12 Cr4 O32'
_cell_volume   572.17852825
_cell_formula_units_Z   4
loop_
 _symmetry_equiv_pos_site_id
 _symmetry_equiv_pos_as_xyz
  1  'x, y, z'
loop_
 _atom_site_type_symbol
 _atom_site_label
 _atom_site_symmetry_multiplicity
 _atom_site_fract_x
 _atom_site_fract_y
 _atom_site_fract_z
 _atom_site_occupancy
  Li  Li0  1  0.26360000  0.91096300  0.44521000  1
  Li  Li1  1  0.74432350  0.90893850  0.44220900  1
  Li  Li2  1  0.49565600  0.66882900  0.44302600  1
  Li  Li3  1  0.49565600  0.33117100  0.94302600  1
  Li  Li4  1  0.26360000  0.08903700  0.94521000  1
  Li  Li5  1  0.74432350  0.09106150  0.94220900  1
  Li  Li6  1  0.76360000  0.41096300  0.44521000  1
  Li  Li7  1  0.24432350  0.40893850  0.44220900  1
  Li  Li8  1  0.99565600  0.16882900  0.44302600  1
  Li  Li9  1  0.99565600  0.83117100  0.94302600  1
  Li  Li10  1  0.76360000  0.58903700  0.94521000  1
  Li  Li11  1  0.24432350  0.59106150  0.94220900  1
  Mn  Mn12  1  0.25227800  0.91333000  0.71548000  1
  Mn  Mn13  1  0.74648900  0.91248500  0.71439700  1
  Mn  Mn14  1  0.49883350  0.66372650  0.71136000  1
  Mn  Mn15  1  0.49883350  0.33627350  0.21136000  1
  Mn  Mn16  1  0.25227800  0.08667000  0.21548000  1
  Mn  Mn17  1  0.74648900  0.08751500  0.21439700  1
  Mn  Mn18  1  0.75227800  0.41333000  0.71548000  1
  Mn  Mn19  1  0.24648900  0.41248500  0.71439700  1
  Mn  Mn20  1  0.99883350  0.16372650  0.71136000  1
  Mn  Mn21  1  0.99883350  0.83627350  0.21136000  1
  Mn  Mn22  1  0.75227800  0.58667000  0.21548000  1
  Mn  Mn23  1  0.24648900  0.58751500  0.21439700  1
  Cr  Cr24  1  0.50269300  0.83957700  0.98980100  1
  Cr  Cr25  1  0.50269300  0.16042300  0.48980100  1
  Cr  Cr26  1  0.00269300  0.33957700  0.98980100  1
  Cr  Cr27  1  0.00269300  0.66042300  0.48980100  1
  O  O28  1  0.25683900  0.93349400  0.09177500  1
  O  O29  1  0.49988400  0.98465000  0.83709100  1
  O  O30  1  0.47190500  0.82321600  0.59840400  1
  O  O31  1  0.02438200  0.00485500  0.82458900  1
  O  O32  1  0.02438200  0.99514500  0.32458900  1
  O  O33  1  0.76412400  0.92830900  0.09235900  1
  O  O34  1  0.26632600  0.76723800  0.85249400  1
  O  O35  1  0.71875450  0.76102550  0.84236700  1
  O  O36  1  0.50185200  0.66502300  0.10281100  1
  O  O37  1  0.50185200  0.33497700  0.60281100  1
  O  O38  1  0.26632600  0.23276200  0.35249400  1
  O  O39  1  0.47190500  0.17678400  0.09840400  1
  O  O40  1  0.71875450  0.23897450  0.34236700  1
  O  O41  1  0.25683900  0.06650600  0.59177500  1
  O  O42  1  0.49988400  0.01535000  0.33709100  1
  O  O43  1  0.76412400  0.07169100  0.59235900  1
  O  O44  1  0.75683900  0.43349400  0.09177500  1
  O  O45  1  0.99988400  0.48465000  0.83709100  1
  O  O46  1  0.97190500  0.32321600  0.59840400  1
  O  O47  1  0.52438200  0.50485500  0.82458900  1
  O  O48  1  0.52438200  0.49514500  0.32458900  1
  O  O49  1  0.26412400  0.42830900  0.09235900  1
  O  O50  1  0.76632600  0.26723800  0.85249400  1
  O  O51  1  0.21875450  0.26102550  0.84236700  1
  O  O52  1  0.00185200  0.16502300  0.10281100  1
  O  O53  1  0.00185200  0.83497700  0.60281100  1
  O  O54  1  0.76632600  0.73276200  0.35249400  1
  O  O55  1  0.97190500  0.67678400  0.09840400  1
  O  O56  1  0.21875450  0.73897450  0.34236700  1
  O  O57  1  0.75683900  0.56650600  0.59177500  1
  O  O58  1  0.99988400  0.51535000  0.33709100  1
  O  O59  1  0.26412400  0.57169100  0.59235900  1
