# generated using pymatgen
data_VWO4
_symmetry_space_group_name_H-M   'P 1'
_cell_length_a   4.57994980
_cell_length_b   4.91151500
_cell_length_c   11.98236782
_cell_angle_alpha   90.00000000
_cell_angle_beta   90.00000000
_cell_angle_gamma   90.00000000
_symmetry_Int_Tables_number   1
_chemical_formula_structural   VWO4
_chemical_formula_sum   'V4 W4 O16'
_cell_volume   269.53727874
_cell_formula_units_Z   4
loop_
 _symmetry_equiv_pos_site_id
 _symmetry_equiv_pos_as_xyz
  1  'x, y, z'
loop_
 _atom_site_type_symbol
 _atom_site_label
 _atom_site_symmetry_multiplicity
 _atom_site_fract_x
 _atom_site_fract_y
 _atom_site_fract_z
 _atom_site_occupancy
  V  V0  1  0.00000000  0.75000000  0.93638050  1
  V  V1  1  0.50000000  0.75000000  0.43638050  1
  V  V2  1  0.50000000  0.25000000  0.56361950  1
  V  V3  1  0.00000000  0.25000000  0.06361950  1
  W  W4  1  0.50000000  0.25000000  0.82489350  1
  W  W5  1  0.00000000  0.25000000  0.32489350  1
  W  W6  1  0.00000000  0.75000000  0.67510650  1
  W  W7  1  0.50000000  0.75000000  0.17510650  1
  O  O8  1  0.26998550  0.06999750  0.69287550  1
  O  O9  1  0.76998550  0.43000250  0.19287550  1
  O  O10  1  0.73001450  0.43000250  0.69287550  1
  O  O11  1  0.76998550  0.93000250  0.80712450  1
  O  O12  1  0.23001450  0.06999750  0.19287550  1
  O  O13  1  0.26998550  0.56999750  0.30712450  1
  O  O14  1  0.23001450  0.56999750  0.80712450  1
  O  O15  1  0.73001450  0.93000250  0.30712450  1
  O  O16  1  0.25410850  0.59175150  0.56103250  1
  O  O17  1  0.75410850  0.90824850  0.06103250  1
  O  O18  1  0.74589150  0.90824850  0.56103250  1
  O  O19  1  0.75410850  0.40824850  0.93896750  1
  O  O20  1  0.24589150  0.59175150  0.06103250  1
  O  O21  1  0.25410850  0.09175150  0.43896750  1
  O  O22  1  0.24589150  0.09175150  0.93896750  1
  O  O23  1  0.74589150  0.40824850  0.43896750  1
