# generated using pymatgen
data_NaH8O5
_symmetry_space_group_name_H-M   'P 1'
_cell_length_a   14.41074400
_cell_length_b   6.52618200
_cell_length_c   11.56070379
_cell_angle_alpha   90.00000000
_cell_angle_beta   118.16376544
_cell_angle_gamma   90.00000000
_symmetry_Int_Tables_number   1
_chemical_formula_structural   NaH8O5
_chemical_formula_sum   'Na8 H64 O40'
_cell_volume   958.52288273
_cell_formula_units_Z   8
loop_
 _symmetry_equiv_pos_site_id
 _symmetry_equiv_pos_as_xyz
  1  'x, y, z'
loop_
 _atom_site_type_symbol
 _atom_site_label
 _atom_site_symmetry_multiplicity
 _atom_site_fract_x
 _atom_site_fract_y
 _atom_site_fract_z
 _atom_site_occupancy
  Na  Na0  1  0.80100000  0.50494900  0.56799300  1
  Na  Na1  1  0.19900000  0.50494900  0.93200700  1
  Na  Na2  1  0.19900000  0.49505100  0.43200700  1
  Na  Na3  1  0.80100000  0.49505100  0.06799300  1
  Na  Na4  1  0.30100000  0.00494900  0.56799300  1
  Na  Na5  1  0.69900000  0.00494900  0.93200700  1
  Na  Na6  1  0.69900000  0.99505100  0.43200700  1
  Na  Na7  1  0.30100000  0.99505100  0.06799300  1
  H  H8  1  0.12355200  0.77911900  0.57034000  1
  H  H9  1  0.37644800  0.27911900  0.92966000  1
  H  H10  1  0.87644800  0.22088100  0.42966000  1
  H  H11  1  0.62355200  0.72088100  0.07034000  1
  H  H12  1  0.08233700  0.87714600  0.42870200  1
  H  H13  1  0.91766300  0.87714600  0.07129800  1
  H  H14  1  0.91766300  0.12285400  0.57129800  1
  H  H15  1  0.08233700  0.12285400  0.92870200  1
  H  H16  1  0.91723600  0.23816100  0.78658100  1
  H  H17  1  0.08276400  0.23816100  0.71341900  1
  H  H18  1  0.08276400  0.76183900  0.21341900  1
  H  H19  1  0.91723600  0.76183900  0.28658100  1
  H  H20  1  0.93663850  0.47713750  0.82829900  1
  H  H21  1  0.06336150  0.47713750  0.67170100  1
  H  H22  1  0.06336150  0.52286250  0.17170100  1
  H  H23  1  0.93663850  0.52286250  0.32829900  1
  H  H24  1  0.98272800  0.80309400  0.63122100  1
  H  H25  1  0.01727200  0.80309400  0.86877900  1
  H  H26  1  0.01727200  0.19690600  0.36877900  1
  H  H27  1  0.98272800  0.19690600  0.13122100  1
  H  H28  1  0.93945950  0.67699250  0.49473800  1
  H  H29  1  0.56054050  0.17699250  0.00526200  1
  H  H30  1  0.06054050  0.32300750  0.50526200  1
  H  H31  1  0.43945950  0.82300750  0.99473800  1
  H  H32  1  0.23724850  0.35546950  0.68358100  1
  H  H33  1  0.26275150  0.85546950  0.81641900  1
  H  H34  1  0.76275150  0.64453050  0.31641900  1
  H  H35  1  0.73724850  0.14453050  0.18358100  1
  H  H36  1  0.85392500  0.90951400  0.70420400  1
  H  H37  1  0.14607500  0.90951400  0.79579600  1
  H  H38  1  0.14607500  0.09048600  0.29579600  1
  H  H39  1  0.85392500  0.09048600  0.20420400  1
  H  H40  1  0.62355200  0.27911900  0.57034000  1
  H  H41  1  0.87644800  0.77911900  0.92966000  1
  H  H42  1  0.37644800  0.72088100  0.42966000  1
  H  H43  1  0.12355200  0.22088100  0.07034000  1
  H  H44  1  0.58233700  0.37714600  0.42870200  1
  H  H45  1  0.41766300  0.37714600  0.07129800  1
  H  H46  1  0.41766300  0.62285400  0.57129800  1
  H  H47  1  0.58233700  0.62285400  0.92870200  1
  H  H48  1  0.41723600  0.73816100  0.78658100  1
  H  H49  1  0.58276400  0.73816100  0.71341900  1
  H  H50  1  0.58276400  0.26183900  0.21341900  1
  H  H51  1  0.41723600  0.26183900  0.28658100  1
  H  H52  1  0.43663850  0.97713750  0.82829900  1
  H  H53  1  0.56336150  0.97713750  0.67170100  1
  H  H54  1  0.56336150  0.02286250  0.17170100  1
  H  H55  1  0.43663850  0.02286250  0.32829900  1
  H  H56  1  0.48272800  0.30309400  0.63122100  1
  H  H57  1  0.51727200  0.30309400  0.86877900  1
  H  H58  1  0.51727200  0.69690600  0.36877900  1
  H  H59  1  0.48272800  0.69690600  0.13122100  1
  H  H60  1  0.43945950  0.17699250  0.49473800  1
  H  H61  1  0.06054050  0.67699250  0.00526200  1
  H  H62  1  0.56054050  0.82300750  0.50526200  1
  H  H63  1  0.93945950  0.32300750  0.99473800  1
  H  H64  1  0.73724850  0.85546950  0.68358100  1
  H  H65  1  0.76275150  0.35546950  0.81641900  1
  H  H66  1  0.26275150  0.14453050  0.31641900  1
  H  H67  1  0.23724850  0.64453050  0.18358100  1
  H  H68  1  0.35392500  0.40951400  0.70420400  1
  H  H69  1  0.64607500  0.40951400  0.79579600  1
  H  H70  1  0.64607500  0.59048600  0.29579600  1
  H  H71  1  0.35392500  0.59048600  0.20420400  1
  O  O72  1  0.97990750  0.01891650  0.79924100  1
  O  O73  1  0.02009250  0.01891650  0.70075900  1
  O  O74  1  0.02009250  0.98108350  0.20075900  1
  O  O75  1  0.97990750  0.98108350  0.29924100  1
  O  O76  1  0.14568000  0.81177700  0.50516600  1
  O  O77  1  0.35432000  0.31177700  0.99483400  1
  O  O78  1  0.85432000  0.18822300  0.49483400  1
  O  O79  1  0.64568000  0.68822300  0.00516600  1
  O  O80  1  0.38081400  0.87005400  0.78914600  1
  O  O81  1  0.11918600  0.37005400  0.71085400  1
  O  O82  1  0.61918600  0.12994600  0.21085400  1
  O  O83  1  0.88081400  0.62994600  0.28914600  1
  O  O84  1  0.96333150  0.66004650  0.58884600  1
  O  O85  1  0.03666850  0.66004650  0.91115400  1
  O  O86  1  0.03666850  0.33995350  0.41115400  1
  O  O87  1  0.96333150  0.33995350  0.08884600  1
  O  O88  1  0.28574250  0.33940750  0.64587500  1
  O  O89  1  0.21425750  0.83940750  0.85412500  1
  O  O90  1  0.71425750  0.66059250  0.35412500  1
  O  O91  1  0.78574250  0.16059250  0.14587500  1
  O  O92  1  0.47990750  0.51891650  0.79924100  1
  O  O93  1  0.52009250  0.51891650  0.70075900  1
  O  O94  1  0.52009250  0.48108350  0.20075900  1
  O  O95  1  0.47990750  0.48108350  0.29924100  1
  O  O96  1  0.64568000  0.31177700  0.50516600  1
  O  O97  1  0.85432000  0.81177700  0.99483400  1
  O  O98  1  0.35432000  0.68822300  0.49483400  1
  O  O99  1  0.14568000  0.18822300  0.00516600  1
  O  O100  1  0.88081400  0.37005400  0.78914600  1
  O  O101  1  0.61918600  0.87005400  0.71085400  1
  O  O102  1  0.11918600  0.62994600  0.21085400  1
  O  O103  1  0.38081400  0.12994600  0.28914600  1
  O  O104  1  0.46333150  0.16004650  0.58884600  1
  O  O105  1  0.53666850  0.16004650  0.91115400  1
  O  O106  1  0.53666850  0.83995350  0.41115400  1
  O  O107  1  0.46333150  0.83995350  0.08884600  1
  O  O108  1  0.78574250  0.83940750  0.64587500  1
  O  O109  1  0.71425750  0.33940750  0.85412500  1
  O  O110  1  0.21425750  0.16059250  0.35412500  1
  O  O111  1  0.28574250  0.66059250  0.14587500  1
