# generated using pymatgen
data_NaCuP2O7
_symmetry_space_group_name_H-M   'P 1'
_cell_length_a   16.86512200
_cell_length_b   5.04334200
_cell_length_c   8.69110713
_cell_angle_alpha   90.00000000
_cell_angle_beta   113.03647205
_cell_angle_gamma   90.00000000
_symmetry_Int_Tables_number   1
_chemical_formula_structural   NaCuP2O7
_chemical_formula_sum   'Na4 Cu4 P8 O28'
_cell_volume   680.28616922
_cell_formula_units_Z   4
loop_
 _symmetry_equiv_pos_site_id
 _symmetry_equiv_pos_as_xyz
  1  'x, y, z'
loop_
 _atom_site_type_symbol
 _atom_site_label
 _atom_site_symmetry_multiplicity
 _atom_site_fract_x
 _atom_site_fract_y
 _atom_site_fract_z
 _atom_site_occupancy
  Na  Na0  1  0.29822000  0.14802500  0.42815600  1
  Na  Na1  1  0.29822000  0.85197500  0.92815600  1
  Na  Na2  1  0.79822000  0.64802500  0.42815600  1
  Na  Na3  1  0.79822000  0.35197500  0.92815600  1
  Cu  Cu4  1  0.00199950  0.50145550  0.00124200  1
  Cu  Cu5  1  0.00199950  0.49854450  0.50124200  1
  Cu  Cu6  1  0.50199950  0.00145550  0.00124200  1
  Cu  Cu7  1  0.50199950  0.99854450  0.50124200  1
  P  P8  1  0.09074950  0.84927450  0.31250600  1
  P  P9  1  0.41150500  0.35705100  0.18966100  1
  P  P10  1  0.09074950  0.15072550  0.81250600  1
  P  P11  1  0.41150500  0.64294900  0.68966100  1
  P  P12  1  0.59074950  0.34927450  0.31250600  1
  P  P13  1  0.91150500  0.85705100  0.18966100  1
  P  P14  1  0.59074950  0.65072550  0.81250600  1
  P  P15  1  0.91150500  0.14294900  0.68966100  1
  O  O16  1  0.08855650  0.70687850  0.15128600  1
  O  O17  1  0.41468700  0.15688200  0.05425100  1
  O  O18  1  0.16649250  0.02962150  0.37478100  1
  O  O19  1  0.00090300  0.02595800  0.25145700  1
  O  O20  1  0.33465200  0.53294800  0.12452300  1
  O  O21  1  0.08805950  0.65555150  0.44913500  1
  O  O22  1  0.41333650  0.20342350  0.34767000  1
  O  O23  1  0.08855650  0.29312150  0.65128600  1
  O  O24  1  0.41468700  0.84311800  0.55425100  1
  O  O25  1  0.16649250  0.97037850  0.87478100  1
  O  O26  1  0.00090300  0.97404200  0.75145700  1
  O  O27  1  0.33465200  0.46705200  0.62452300  1
  O  O28  1  0.08805950  0.34444850  0.94913500  1
  O  O29  1  0.41333650  0.79657650  0.84767000  1
  O  O30  1  0.58855650  0.20687850  0.15128600  1
  O  O31  1  0.91468700  0.65688200  0.05425100  1
  O  O32  1  0.66649250  0.52962150  0.37478100  1
  O  O33  1  0.50090300  0.52595800  0.25145700  1
  O  O34  1  0.83465200  0.03294800  0.12452300  1
  O  O35  1  0.58805950  0.15555150  0.44913500  1
  O  O36  1  0.91333650  0.70342350  0.34767000  1
  O  O37  1  0.58855650  0.79312150  0.65128600  1
  O  O38  1  0.91468700  0.34311800  0.55425100  1
  O  O39  1  0.66649250  0.47037850  0.87478100  1
  O  O40  1  0.50090300  0.47404200  0.75145700  1
  O  O41  1  0.83465200  0.96705200  0.62452300  1
  O  O42  1  0.58805950  0.84444850  0.94913500  1
  O  O43  1  0.91333650  0.29657650  0.84767000  1
