# generated using pymatgen
data_Ti(SO4)2
_symmetry_space_group_name_H-M   'P 1'
_cell_length_a   8.37556777
_cell_length_b   8.37556777
_cell_length_c   22.44307484
_cell_angle_alpha   90.00000000
_cell_angle_beta   90.00000000
_cell_angle_gamma   120.00000000
_symmetry_Int_Tables_number   1
_chemical_formula_structural   Ti(SO4)2
_chemical_formula_sum   'Ti9 S18 O72'
_cell_volume   1363.45717946
_cell_formula_units_Z   9
loop_
 _symmetry_equiv_pos_site_id
 _symmetry_equiv_pos_as_xyz
  1  'x, y, z'
loop_
 _atom_site_type_symbol
 _atom_site_label
 _atom_site_symmetry_multiplicity
 _atom_site_fract_x
 _atom_site_fract_y
 _atom_site_fract_z
 _atom_site_occupancy
  Ti  Ti0  1  0.33333333  0.66666667  0.30939467  1
  Ti  Ti1  1  0.33333333  0.66666667  0.02338167  1
  Ti  Ti2  1  0.00000000  0.00000000  0.14744100  1
  Ti  Ti3  1  0.00000000  0.00000000  0.64272800  1
  Ti  Ti4  1  0.00000000  0.00000000  0.35671500  1
  Ti  Ti5  1  0.66666667  0.33333333  0.48077433  1
  Ti  Ti6  1  0.66666667  0.33333333  0.97606133  1
  Ti  Ti7  1  0.66666667  0.33333333  0.69004833  1
  Ti  Ti8  1  0.33333333  0.66666667  0.81410767  1
  S  S9  1  0.28371167  0.00196533  0.24954033  1
  S  S10  1  0.99803467  0.28174633  0.24954033  1
  S  S11  1  0.71825367  0.71628833  0.24954033  1
  S  S12  1  0.95501133  0.61311367  0.08546667  1
  S  S13  1  0.65810233  0.04498867  0.08546667  1
  S  S14  1  0.38688633  0.34189767  0.08546667  1
  S  S15  1  0.95037833  0.33529867  0.58287367  1
  S  S16  1  0.66470133  0.61507967  0.58287367  1
  S  S17  1  0.38492033  0.04962167  0.58287367  1
  S  S18  1  0.62167800  0.94644700  0.41880000  1
  S  S19  1  0.32476900  0.37832200  0.41880000  1
  S  S20  1  0.05355300  0.67523100  0.41880000  1
  S  S21  1  0.61704500  0.66863200  0.91620700  1
  S  S22  1  0.33136800  0.94841300  0.91620700  1
  S  S23  1  0.05158700  0.38295500  0.91620700  1
  S  S24  1  0.28834467  0.27978033  0.75213333  1
  S  S25  1  0.99143567  0.71165533  0.75213333  1
  S  S26  1  0.72021967  0.00856433  0.75213333  1
  O  O27  1  0.46760867  0.32144633  0.02760933  1
  O  O28  1  0.85383767  0.53239133  0.02760933  1
  O  O29  1  0.43038467  0.18359533  0.23793133  1
  O  O30  1  0.67855367  0.14616233  0.02760933  1
  O  O31  1  0.14085333  0.92404567  0.19997067  1
  O  O32  1  0.34565567  0.86191133  0.25792833  1
  O  O33  1  0.13808867  0.48374433  0.25792833  1
  O  O34  1  0.81640467  0.24678933  0.23793133  1
  O  O35  1  0.51625567  0.65434433  0.25792833  1
  O  O36  1  0.93025733  0.77744367  0.09843367  1
  O  O37  1  0.90061333  0.48263667  0.13240467  1
  O  O38  1  0.58202333  0.09938667  0.13240467  1
  O  O39  1  0.07595433  0.21680767  0.19997067  1
  O  O40  1  0.78319233  0.85914667  0.19997067  1
  O  O41  1  0.75321067  0.56961533  0.23793133  1
  O  O42  1  0.15824967  0.69829433  0.07140933  1
  O  O43  1  0.84718633  0.06974267  0.09843367  1
  O  O44  1  0.54004467  0.84175033  0.07140933  1
  O  O45  1  0.30170567  0.45995533  0.07140933  1
  O  O46  1  0.51736333  0.41797667  0.13240467  1
  O  O47  1  0.01121367  0.19324833  0.30622533  1
  O  O48  1  0.22255633  0.15281367  0.09843367  1
  O  O49  1  0.80675167  0.81796533  0.30622533  1
  O  O50  1  0.18203467  0.98878633  0.30622533  1
  O  O51  1  0.13427533  0.65477967  0.36094267  1
  O  O52  1  0.52050433  0.86572467  0.36094267  1
  O  O53  1  0.09705133  0.51692867  0.57126467  1
  O  O54  1  0.34522033  0.47949567  0.36094267  1
  O  O55  1  0.80752000  0.25737900  0.53330400  1
  O  O56  1  0.01232233  0.19524467  0.59126167  1
  O  O57  1  0.80475533  0.81707767  0.59126167  1
  O  O58  1  0.48307133  0.58012267  0.57126467  1
  O  O59  1  0.18292233  0.98767767  0.59126167  1
  O  O60  1  0.59692400  0.11077700  0.43176700  1
  O  O61  1  0.56728000  0.81597000  0.46573800  1
  O  O62  1  0.24869000  0.43272000  0.46573800  1
  O  O63  1  0.74262100  0.55014100  0.53330400  1
  O  O64  1  0.44985900  0.19248000  0.53330400  1
  O  O65  1  0.41987733  0.90294867  0.57126467  1
  O  O66  1  0.82491633  0.03162767  0.40474267  1
  O  O67  1  0.51385300  0.40307600  0.43176700  1
  O  O68  1  0.20671133  0.17508367  0.40474267  1
  O  O69  1  0.96837233  0.79328867  0.40474267  1
  O  O70  1  0.18403000  0.75131000  0.46573800  1
  O  O71  1  0.67788033  0.52658167  0.63955867  1
  O  O72  1  0.88922300  0.48614700  0.43176700  1
  O  O73  1  0.47341833  0.15129867  0.63955867  1
  O  O74  1  0.84870133  0.32211967  0.63955867  1
  O  O75  1  0.80094200  0.98811300  0.69427600  1
  O  O76  1  0.18717100  0.19905800  0.69427600  1
  O  O77  1  0.76371800  0.85026200  0.90459800  1
  O  O78  1  0.01188700  0.81282900  0.69427600  1
  O  O79  1  0.47418667  0.59071233  0.86663733  1
  O  O80  1  0.67898900  0.52857800  0.92459500  1
  O  O81  1  0.47142200  0.15041100  0.92459500  1
  O  O82  1  0.14973800  0.91345600  0.90459800  1
  O  O83  1  0.84958900  0.32101100  0.92459500  1
  O  O84  1  0.26359067  0.44411033  0.76510033  1
  O  O85  1  0.23394667  0.14930333  0.79907133  1
  O  O86  1  0.91535667  0.76605333  0.79907133  1
  O  O87  1  0.40928767  0.88347433  0.86663733  1
  O  O88  1  0.11652567  0.52581333  0.86663733  1
  O  O89  1  0.08654400  0.23628200  0.90459800  1
  O  O90  1  0.49158300  0.36496100  0.73807600  1
  O  O91  1  0.18051967  0.73640933  0.76510033  1
  O  O92  1  0.87337800  0.50841700  0.73807600  1
  O  O93  1  0.63503900  0.12662200  0.73807600  1
  O  O94  1  0.85069667  0.08464333  0.79907133  1
  O  O95  1  0.34454700  0.85991500  0.97289200  1
  O  O96  1  0.55588967  0.81948033  0.76510033  1
  O  O97  1  0.14008500  0.48463200  0.97289200  1
  O  O98  1  0.51536800  0.65545300  0.97289200  1
