# generated using pymatgen
data_LaBiO3
_symmetry_space_group_name_H-M   'P 1'
_cell_length_a   6.27161173
_cell_length_b   6.27161173
_cell_length_c   15.36308760
_cell_angle_alpha   90.00000000
_cell_angle_beta   90.00000000
_cell_angle_gamma   120.00000000
_symmetry_Int_Tables_number   1
_chemical_formula_structural   LaBiO3
_chemical_formula_sum   'La6 Bi6 O18'
_cell_volume   523.32016020
_cell_formula_units_Z   6
loop_
 _symmetry_equiv_pos_site_id
 _symmetry_equiv_pos_as_xyz
  1  'x, y, z'
loop_
 _atom_site_type_symbol
 _atom_site_label
 _atom_site_symmetry_multiplicity
 _atom_site_fract_x
 _atom_site_fract_y
 _atom_site_fract_z
 _atom_site_occupancy
  La  La0  1  0.00000000  0.00000000  0.28027400  1
  La  La1  1  0.66666667  0.33333333  0.11360733  1
  La  La2  1  0.66666667  0.33333333  0.61360733  1
  La  La3  1  0.33333333  0.66666667  0.44694067  1
  La  La4  1  0.33333333  0.66666667  0.94694067  1
  La  La5  1  0.00000000  0.00000000  0.78027400  1
  Bi  Bi6  1  0.00000000  0.00000000  0.00052200  1
  Bi  Bi7  1  0.33333333  0.66666667  0.16718867  1
  Bi  Bi8  1  0.66666667  0.33333333  0.33385533  1
  Bi  Bi9  1  0.00000000  0.00000000  0.50052200  1
  Bi  Bi10  1  0.33333333  0.66666667  0.66718867  1
  Bi  Bi11  1  0.66666667  0.33333333  0.83385533  1
  O  O12  1  0.67012933  0.60909867  0.23364167  1
  O  O13  1  0.60563600  0.94243200  0.06697500  1
  O  O14  1  0.33679600  0.39436400  0.06697500  1
  O  O15  1  0.39090133  0.06103067  0.23364167  1
  O  O16  1  0.93896933  0.32987067  0.23364167  1
  O  O17  1  0.05756800  0.66320400  0.06697500  1
  O  O18  1  0.33679600  0.94243200  0.56697500  1
  O  O19  1  0.27230267  0.27576533  0.40030833  1
  O  O20  1  0.00346267  0.72769733  0.40030833  1
  O  O21  1  0.05756800  0.39436400  0.56697500  1
  O  O22  1  0.60563600  0.66320400  0.56697500  1
  O  O23  1  0.72423467  0.99653733  0.40030833  1
  O  O24  1  0.00346267  0.27576533  0.90030833  1
  O  O25  1  0.93896933  0.60909867  0.73364167  1
  O  O26  1  0.67012933  0.06103067  0.73364167  1
  O  O27  1  0.72423467  0.72769733  0.90030833  1
  O  O28  1  0.27230267  0.99653733  0.90030833  1
  O  O29  1  0.39090133  0.32987067  0.73364167  1
