# generated using pymatgen
data_Na2Co2O3
_symmetry_space_group_name_H-M   'P 1'
_cell_length_a   12.54956800
_cell_length_b   11.15562200
_cell_length_c   5.64786747
_cell_angle_alpha   90.00000000
_cell_angle_beta   114.82185215
_cell_angle_gamma   90.00000000
_symmetry_Int_Tables_number   1
_chemical_formula_structural   Na2Co2O3
_chemical_formula_sum   'Na16 Co16 O24'
_cell_volume   717.64538202
_cell_formula_units_Z   8
loop_
 _symmetry_equiv_pos_site_id
 _symmetry_equiv_pos_as_xyz
  1  'x, y, z'
loop_
 _atom_site_type_symbol
 _atom_site_label
 _atom_site_symmetry_multiplicity
 _atom_site_fract_x
 _atom_site_fract_y
 _atom_site_fract_z
 _atom_site_occupancy
  Na  Na0  1  0.91328750  0.09369050  0.91492300  1
  Na  Na1  1  0.91328750  0.90630950  0.41492300  1
  Na  Na2  1  0.00000000  0.28889500  0.75000000  1
  Na  Na3  1  0.00000000  0.57525200  0.75000000  1
  Na  Na4  1  0.00000000  0.42474800  0.25000000  1
  Na  Na5  1  0.00000000  0.71110500  0.25000000  1
  Na  Na6  1  0.08671250  0.09369050  0.58507700  1
  Na  Na7  1  0.08671250  0.90630950  0.08507700  1
  Na  Na8  1  0.41328750  0.59369050  0.91492300  1
  Na  Na9  1  0.41328750  0.40630950  0.41492300  1
  Na  Na10  1  0.50000000  0.78889500  0.75000000  1
  Na  Na11  1  0.50000000  0.07525200  0.75000000  1
  Na  Na12  1  0.50000000  0.92474800  0.25000000  1
  Na  Na13  1  0.50000000  0.21110500  0.25000000  1
  Na  Na14  1  0.58671250  0.59369050  0.58507700  1
  Na  Na15  1  0.58671250  0.40630950  0.08507700  1
  Co  Co16  1  0.21358000  0.43148600  0.80290000  1
  Co  Co17  1  0.18105800  0.73219500  0.74953600  1
  Co  Co18  1  0.21358000  0.56851400  0.30290000  1
  Co  Co19  1  0.18105800  0.26780500  0.24953600  1
  Co  Co20  1  0.81894200  0.73219500  0.75046400  1
  Co  Co21  1  0.78642000  0.43148600  0.69710000  1
  Co  Co22  1  0.81894200  0.26780500  0.25046400  1
  Co  Co23  1  0.78642000  0.56851400  0.19710000  1
  Co  Co24  1  0.71358000  0.93148600  0.80290000  1
  Co  Co25  1  0.68105800  0.23219500  0.74953600  1
  Co  Co26  1  0.71358000  0.06851400  0.30290000  1
  Co  Co27  1  0.68105800  0.76780500  0.24953600  1
  Co  Co28  1  0.31894200  0.23219500  0.75046400  1
  Co  Co29  1  0.28642000  0.93148600  0.69710000  1
  Co  Co30  1  0.31894200  0.76780500  0.25046400  1
  Co  Co31  1  0.28642000  0.06851400  0.19710000  1
  O  O32  1  0.14385000  0.57468700  0.56503500  1
  O  O33  1  0.14486800  0.28874000  0.55983900  1
  O  O34  1  0.61910050  0.38432250  0.55587900  1
  O  O35  1  0.14385000  0.42531300  0.06503500  1
  O  O36  1  0.14486800  0.71126000  0.05983900  1
  O  O37  1  0.61910050  0.61567750  0.05587900  1
  O  O38  1  0.38089950  0.38432250  0.94412100  1
  O  O39  1  0.85513200  0.28874000  0.94016100  1
  O  O40  1  0.85615000  0.57468700  0.93496500  1
  O  O41  1  0.38089950  0.61567750  0.44412100  1
  O  O42  1  0.85513200  0.71126000  0.44016100  1
  O  O43  1  0.85615000  0.42531300  0.43496500  1
  O  O44  1  0.64385000  0.07468700  0.56503500  1
  O  O45  1  0.64486800  0.78874000  0.55983900  1
  O  O46  1  0.11910050  0.88432250  0.55587900  1
  O  O47  1  0.64385000  0.92531300  0.06503500  1
  O  O48  1  0.64486800  0.21126000  0.05983900  1
  O  O49  1  0.11910050  0.11567750  0.05587900  1
  O  O50  1  0.88089950  0.88432250  0.94412100  1
  O  O51  1  0.35513200  0.78874000  0.94016100  1
  O  O52  1  0.35615000  0.07468700  0.93496500  1
  O  O53  1  0.88089950  0.11567750  0.44412100  1
  O  O54  1  0.35513200  0.21126000  0.44016100  1
  O  O55  1  0.35615000  0.92531300  0.43496500  1
