# generated using pymatgen
data_Rb6Ti2O7
_symmetry_space_group_name_H-M   'P 1'
_cell_length_a   9.93015655
_cell_length_b   9.93015655
_cell_length_c   9.96172300
_cell_angle_alpha   90.00000000
_cell_angle_beta   90.00000000
_cell_angle_gamma   120.00000000
_symmetry_Int_Tables_number   1
_chemical_formula_structural   Rb6Ti2O7
_chemical_formula_sum   'Rb12 Ti4 O14'
_cell_volume   850.70166730
_cell_formula_units_Z   2
loop_
 _symmetry_equiv_pos_site_id
 _symmetry_equiv_pos_as_xyz
  1  'x, y, z'
loop_
 _atom_site_type_symbol
 _atom_site_label
 _atom_site_symmetry_multiplicity
 _atom_site_fract_x
 _atom_site_fract_y
 _atom_site_fract_z
 _atom_site_occupancy
  Rb  Rb0  1  0.33340033  0.97092267  0.37382500  1
  Rb  Rb1  1  0.35023633  0.96285667  0.87273100  1
  Rb  Rb2  1  0.02907733  0.36247767  0.37382500  1
  Rb  Rb3  1  0.03714333  0.38737967  0.87273100  1
  Rb  Rb4  1  0.36247767  0.33340033  0.62617500  1
  Rb  Rb5  1  0.38737967  0.35023633  0.12726900  1
  Rb  Rb6  1  0.61262033  0.64976367  0.87273100  1
  Rb  Rb7  1  0.63752233  0.66659967  0.37382500  1
  Rb  Rb8  1  0.96285667  0.61262033  0.12726900  1
  Rb  Rb9  1  0.97092267  0.63752233  0.62617500  1
  Rb  Rb10  1  0.64976367  0.03714333  0.12726900  1
  Rb  Rb11  1  0.66659967  0.02907733  0.62617500  1
  Ti  Ti12  1  0.33333333  0.66666667  0.18046300  1
  Ti  Ti13  1  0.33333333  0.66666667  0.56638600  1
  Ti  Ti14  1  0.66666667  0.33333333  0.81953700  1
  Ti  Ti15  1  0.66666667  0.33333333  0.43361400  1
  O  O16  1  0.17597633  0.47794667  0.62171500  1
  O  O17  1  0.17518133  0.47856267  0.12504400  1
  O  O18  1  0.30338133  0.82481867  0.12504400  1
  O  O19  1  0.30197033  0.82402367  0.62171500  1
  O  O20  1  0.33333333  0.66666667  0.37304700  1
  O  O21  1  0.52205333  0.69802967  0.62171500  1
  O  O22  1  0.52143733  0.69661867  0.12504400  1
  O  O23  1  0.47856267  0.30338133  0.87495600  1
  O  O24  1  0.47794667  0.30197033  0.37828500  1
  O  O25  1  0.66666667  0.33333333  0.62695300  1
  O  O26  1  0.69802967  0.17597633  0.37828500  1
  O  O27  1  0.69661867  0.17518133  0.87495600  1
  O  O28  1  0.82481867  0.52143733  0.87495600  1
  O  O29  1  0.82402367  0.52205333  0.37828500  1
