# generated using pymatgen
data_Ca(LaI4)2
_symmetry_space_group_name_H-M   'P 1'
_cell_length_a   18.44909800
_cell_length_b   11.21743600
_cell_length_c   12.46123100
_cell_angle_alpha   90.00000000
_cell_angle_beta   116.25743621
_cell_angle_gamma   90.00000000
_symmetry_Int_Tables_number   1
_chemical_formula_structural   Ca(LaI4)2
_chemical_formula_sum   'Ca4 La8 I32'
_cell_volume   2312.77140313
_cell_formula_units_Z   4
loop_
 _symmetry_equiv_pos_site_id
 _symmetry_equiv_pos_as_xyz
  1  'x, y, z'
loop_
 _atom_site_type_symbol
 _atom_site_label
 _atom_site_symmetry_multiplicity
 _atom_site_fract_x
 _atom_site_fract_y
 _atom_site_fract_z
 _atom_site_occupancy
  Ca  Ca0  1  0.50000000  0.49061000  0.75000000  1
  Ca  Ca1  1  0.50000000  0.50939000  0.25000000  1
  Ca  Ca2  1  0.00000000  0.99061000  0.75000000  1
  Ca  Ca3  1  0.00000000  0.00939000  0.25000000  1
  La  La4  1  0.24443850  0.75728950  0.78268600  1
  La  La5  1  0.24443850  0.24271050  0.28268600  1
  La  La6  1  0.75556150  0.75728950  0.71731400  1
  La  La7  1  0.75556150  0.24271050  0.21731400  1
  La  La8  1  0.74443850  0.25728950  0.78268600  1
  La  La9  1  0.74443850  0.74271050  0.28268600  1
  La  La10  1  0.25556150  0.25728950  0.71731400  1
  La  La11  1  0.25556150  0.74271050  0.21731400  1
  I  I12  1  0.66296500  0.00899600  0.67218600  1
  I  I13  1  0.58460950  0.37611650  0.59684100  1
  I  I14  1  0.62802150  0.69580050  0.80991600  1
  I  I15  1  0.64347900  0.31858900  0.93988600  1
  I  I16  1  0.66296500  0.99100400  0.17218600  1
  I  I17  1  0.58460950  0.62388350  0.09684100  1
  I  I18  1  0.62802150  0.30419950  0.30991600  1
  I  I19  1  0.64347900  0.68141100  0.43988600  1
  I  I20  1  0.35652100  0.31858900  0.56011400  1
  I  I21  1  0.37197850  0.69580050  0.69008400  1
  I  I22  1  0.41539050  0.37611650  0.90315900  1
  I  I23  1  0.33703500  0.00899600  0.82781400  1
  I  I24  1  0.35652100  0.68141100  0.06011400  1
  I  I25  1  0.37197850  0.30419950  0.19008400  1
  I  I26  1  0.41539050  0.62388350  0.40315900  1
  I  I27  1  0.33703500  0.99100400  0.32781400  1
  I  I28  1  0.16296500  0.50899600  0.67218600  1
  I  I29  1  0.08460950  0.87611650  0.59684100  1
  I  I30  1  0.12802150  0.19580050  0.80991600  1
  I  I31  1  0.14347900  0.81858900  0.93988600  1
  I  I32  1  0.16296500  0.49100400  0.17218600  1
  I  I33  1  0.08460950  0.12388350  0.09684100  1
  I  I34  1  0.12802150  0.80419950  0.30991600  1
  I  I35  1  0.14347900  0.18141100  0.43988600  1
  I  I36  1  0.85652100  0.81858900  0.56011400  1
  I  I37  1  0.87197850  0.19580050  0.69008400  1
  I  I38  1  0.91539050  0.87611650  0.90315900  1
  I  I39  1  0.83703500  0.50899600  0.82781400  1
  I  I40  1  0.85652100  0.18141100  0.06011400  1
  I  I41  1  0.87197850  0.80419950  0.19008400  1
  I  I42  1  0.91539050  0.12388350  0.40315900  1
  I  I43  1  0.83703500  0.49100400  0.32781400  1
