# generated using pymatgen
data_Mg3Fe4O7
_symmetry_space_group_name_H-M   'P 1'
_cell_length_a   3.05817000
_cell_length_b   4.34548200
_cell_length_c   21.44304800
_cell_angle_alpha   90.00000000
_cell_angle_beta   90.00000000
_cell_angle_gamma   90.00000000
_symmetry_Int_Tables_number   1
_chemical_formula_structural   Mg3Fe4O7
_chemical_formula_sum   'Mg6 Fe8 O14'
_cell_volume   284.96143998
_cell_formula_units_Z   2
loop_
 _symmetry_equiv_pos_site_id
 _symmetry_equiv_pos_as_xyz
  1  'x, y, z'
loop_
 _atom_site_type_symbol
 _atom_site_label
 _atom_site_symmetry_multiplicity
 _atom_site_fract_x
 _atom_site_fract_y
 _atom_site_fract_z
 _atom_site_occupancy
  Mg  Mg0  1  0.00381500  0.00000000  0.35844900  1
  Mg  Mg1  1  0.49846200  0.50000000  0.00000000  1
  Mg  Mg2  1  0.50381500  0.50000000  0.14155100  1
  Mg  Mg3  1  0.50381500  0.50000000  0.85844900  1
  Mg  Mg4  1  0.99846200  0.00000000  0.50000000  1
  Mg  Mg5  1  0.00381500  0.00000000  0.64155100  1
  Fe  Fe6  1  0.99952500  0.00000000  0.07252500  1
  Fe  Fe7  1  0.49952500  0.50000000  0.42747500  1
  Fe  Fe8  1  0.98850300  0.00000000  0.21659900  1
  Fe  Fe9  1  0.48850300  0.50000000  0.28340100  1
  Fe  Fe10  1  0.49952500  0.50000000  0.57252500  1
  Fe  Fe11  1  0.99952500  0.00000000  0.92747500  1
  Fe  Fe12  1  0.48850300  0.50000000  0.71659900  1
  Fe  Fe13  1  0.98850300  0.00000000  0.78340100  1
  O  O14  1  0.51417000  0.00000000  0.00000000  1
  O  O15  1  0.47985050  0.00000000  0.14499850  1
  O  O16  1  0.51284250  0.00000000  0.28969950  1
  O  O17  1  0.99984700  0.50000000  0.07148100  1
  O  O18  1  0.49984700  0.00000000  0.42851900  1
  O  O19  1  0.97985050  0.50000000  0.35500150  1
  O  O20  1  0.01284250  0.50000000  0.21030050  1
  O  O21  1  0.01417000  0.50000000  0.50000000  1
  O  O22  1  0.97985050  0.50000000  0.64499850  1
  O  O23  1  0.01284250  0.50000000  0.78969950  1
  O  O24  1  0.49984700  0.00000000  0.57148100  1
  O  O25  1  0.99984700  0.50000000  0.92851900  1
  O  O26  1  0.47985050  0.00000000  0.85500150  1
  O  O27  1  0.51284250  0.00000000  0.71030050  1
