# generated using pymatgen
data_Na3FeBSO7
_symmetry_space_group_name_H-M   'P 1'
_cell_length_a   5.34350876
_cell_length_b   6.78212820
_cell_length_c   9.14001137
_cell_angle_alpha   90.00000000
_cell_angle_beta   91.20297722
_cell_angle_gamma   90.00000000
_symmetry_Int_Tables_number   1
_chemical_formula_structural   Na3FeBSO7
_chemical_formula_sum   'Na6 Fe2 B2 S2 O14'
_cell_volume   331.16430869
_cell_formula_units_Z   2
loop_
 _symmetry_equiv_pos_site_id
 _symmetry_equiv_pos_as_xyz
  1  'x, y, z'
loop_
 _atom_site_type_symbol
 _atom_site_label
 _atom_site_symmetry_multiplicity
 _atom_site_fract_x
 _atom_site_fract_y
 _atom_site_fract_z
 _atom_site_occupancy
  Na  Na0  1  0.75490050  0.75000000  0.06159800  1
  Na  Na1  1  0.25734950  0.01006200  0.23555900  1
  Na  Na2  1  0.25734950  0.48993800  0.23555900  1
  Na  Na3  1  0.74265050  0.51006200  0.76444100  1
  Na  Na4  1  0.74265050  0.98993800  0.76444100  1
  Na  Na5  1  0.24509950  0.25000000  0.93840200  1
  Fe  Fe6  1  0.73518550  0.25000000  0.33489600  1
  Fe  Fe7  1  0.26481450  0.75000000  0.66510400  1
  B  B8  1  0.76741550  0.25000000  0.06306400  1
  B  B9  1  0.23258450  0.75000000  0.93693600  1
  S  S10  1  0.78740650  0.75000000  0.42091900  1
  S  S11  1  0.21259350  0.25000000  0.57908100  1
  O  O12  1  0.21040050  0.75000000  0.08543300  1
  O  O13  1  0.53667050  0.25000000  0.13429900  1
  O  O14  1  0.97714450  0.25000000  0.15944800  1
  O  O15  1  0.71800150  0.92637900  0.33083900  1
  O  O16  1  0.71800150  0.57362100  0.33083900  1
  O  O17  1  0.06416150  0.75000000  0.45123400  1
  O  O18  1  0.34872350  0.25000000  0.43895600  1
  O  O19  1  0.65127650  0.75000000  0.56104400  1
  O  O20  1  0.93583850  0.25000000  0.54876600  1
  O  O21  1  0.28199850  0.42637900  0.66916100  1
  O  O22  1  0.28199850  0.07362100  0.66916100  1
  O  O23  1  0.02285550  0.75000000  0.84055200  1
  O  O24  1  0.46332950  0.75000000  0.86570100  1
  O  O25  1  0.78959950  0.25000000  0.91456700  1
