# generated using pymatgen
data_Sr2YI7
_symmetry_space_group_name_H-M   'P 1'
_cell_length_a   8.31070100
_cell_length_b   14.61040900
_cell_length_c   14.91182783
_cell_angle_alpha   90.00000000
_cell_angle_beta   100.62065251
_cell_angle_gamma   90.00000000
_symmetry_Int_Tables_number   1
_chemical_formula_structural   Sr2YI7
_chemical_formula_sum   'Sr8 Y4 I28'
_cell_volume   1779.61697819
_cell_formula_units_Z   4
loop_
 _symmetry_equiv_pos_site_id
 _symmetry_equiv_pos_as_xyz
  1  'x, y, z'
loop_
 _atom_site_type_symbol
 _atom_site_label
 _atom_site_symmetry_multiplicity
 _atom_site_fract_x
 _atom_site_fract_y
 _atom_site_fract_z
 _atom_site_occupancy
  Sr  Sr0  1  0.75094500  0.46224100  0.22834100  1
  Sr  Sr1  1  0.75822600  0.87228900  0.34475200  1
  Sr  Sr2  1  0.77119400  0.20348200  0.84204800  1
  Sr  Sr3  1  0.62117700  0.63052000  0.73349600  1
  Sr  Sr4  1  0.37882300  0.13052000  0.26650400  1
  Sr  Sr5  1  0.22880600  0.70348200  0.15795200  1
  Sr  Sr6  1  0.24177400  0.37228900  0.65524800  1
  Sr  Sr7  1  0.24905500  0.96224100  0.77165900  1
  Y  Y8  1  0.85207300  0.15417000  0.44583700  1
  Y  Y9  1  0.84272600  0.92503000  0.94599100  1
  Y  Y10  1  0.15727400  0.42503000  0.05400900  1
  Y  Y11  1  0.14792700  0.65417000  0.55416300  1
  I  I12  1  0.88638500  0.30464900  0.09595100  1
  I  I13  1  0.92569500  0.58118800  0.00295300  1
  I  I14  1  0.95467700  0.48788400  0.48837200  1
  I  I15  1  0.88378000  0.83620000  0.13354100  1
  I  I16  1  0.84476200  0.74687100  0.59557800  1
  I  I17  1  0.87999400  0.25037600  0.62874200  1
  I  I18  1  0.79239000  0.08188600  0.25048600  1
  I  I19  1  0.83459600  0.99663100  0.74905700  1
  I  I20  1  0.60652600  0.65983300  0.29881100  1
  I  I21  1  0.60360000  0.41197000  0.80026000  1
  I  I22  1  0.61469600  0.31020500  0.37254500  1
  I  I23  1  0.42244800  0.28356700  0.11203300  1
  I  I24  1  0.55120000  0.03338900  0.46048100  1
  I  I25  1  0.44368000  0.55456800  0.04719500  1
  I  I26  1  0.55632000  0.05456800  0.95280500  1
  I  I27  1  0.44880000  0.53338900  0.53951900  1
  I  I28  1  0.57755200  0.78356700  0.88796700  1
  I  I29  1  0.38530400  0.81020500  0.62745500  1
  I  I30  1  0.39640000  0.91197000  0.19974000  1
  I  I31  1  0.39347400  0.15983300  0.70118900  1
  I  I32  1  0.16540400  0.49663100  0.25094300  1
  I  I33  1  0.20761000  0.58188600  0.74951400  1
  I  I34  1  0.12000600  0.75037600  0.37125800  1
  I  I35  1  0.15523800  0.24687100  0.40442200  1
  I  I36  1  0.11622000  0.33620000  0.86645900  1
  I  I37  1  0.04532300  0.98788400  0.51162800  1
  I  I38  1  0.07430500  0.08118800  0.99704700  1
  I  I39  1  0.11361500  0.80464900  0.90404900  1
