# generated using pymatgen
data_Li2Mn3CuO8
_symmetry_space_group_name_H-M   'P 1'
_cell_length_a   5.82266096
_cell_length_b   10.07694494
_cell_length_c   9.67334918
_cell_angle_alpha   90.00000000
_cell_angle_beta   92.63665511
_cell_angle_gamma   90.00000000
_symmetry_Int_Tables_number   1
_chemical_formula_structural   Li2Mn3CuO8
_chemical_formula_sum   'Li8 Mn12 Cu4 O32'
_cell_volume   566.97934921
_cell_formula_units_Z   4
loop_
 _symmetry_equiv_pos_site_id
 _symmetry_equiv_pos_as_xyz
  1  'x, y, z'
loop_
 _atom_site_type_symbol
 _atom_site_label
 _atom_site_symmetry_multiplicity
 _atom_site_fract_x
 _atom_site_fract_y
 _atom_site_fract_z
 _atom_site_occupancy
  Li  Li0  1  0.50926750  0.83329750  0.89053900  1
  Li  Li1  1  0.98681500  0.00019500  0.99657500  1
  Li  Li2  1  0.98681500  0.99980500  0.49657500  1
  Li  Li3  1  0.50926750  0.16670250  0.39053900  1
  Li  Li4  1  0.00926750  0.33329750  0.89053900  1
  Li  Li5  1  0.48681500  0.50019500  0.99657500  1
  Li  Li6  1  0.48681500  0.49980500  0.49657500  1
  Li  Li7  1  0.00926750  0.66670250  0.39053900  1
  Mn  Mn8  1  0.25146900  0.91614900  0.21549400  1
  Mn  Mn9  1  0.74653450  0.91469050  0.21444800  1
  Mn  Mn10  1  0.50119950  0.66853350  0.21518700  1
  Mn  Mn11  1  0.50119950  0.33146650  0.71518700  1
  Mn  Mn12  1  0.25146900  0.08385100  0.71549400  1
  Mn  Mn13  1  0.74653450  0.08530950  0.71444800  1
  Mn  Mn14  1  0.75146900  0.41614900  0.21549400  1
  Mn  Mn15  1  0.24653450  0.41469050  0.21444800  1
  Mn  Mn16  1  0.00119950  0.16853350  0.21518700  1
  Mn  Mn17  1  0.00119950  0.83146650  0.71518700  1
  Mn  Mn18  1  0.75146900  0.58385100  0.71549400  1
  Mn  Mn19  1  0.24653450  0.58530950  0.71444800  1
  Cu  Cu20  1  0.49727750  0.83372050  0.49381200  1
  Cu  Cu21  1  0.49727750  0.16627950  0.99381200  1
  Cu  Cu22  1  0.99727750  0.33372050  0.49381200  1
  Cu  Cu23  1  0.99727750  0.66627950  0.99381200  1
  O  O24  1  0.22913650  0.92156050  0.60763700  1
  O  O25  1  0.50929300  0.98195700  0.33057500  1
  O  O26  1  0.49135400  0.83357000  0.10837300  1
  O  O27  1  0.00611150  0.99983150  0.31213400  1
  O  O28  1  0.00611150  0.00016850  0.81213400  1
  O  O29  1  0.75466550  0.92030450  0.60454100  1
  O  O30  1  0.28687250  0.75926250  0.33519100  1
  O  O31  1  0.73622150  0.75774450  0.32420200  1
  O  O32  1  0.49363250  0.34185350  0.10521200  1
  O  O33  1  0.49363250  0.65814650  0.60521200  1
  O  O34  1  0.28687250  0.24073750  0.83519100  1
  O  O35  1  0.73622150  0.24225550  0.82420200  1
  O  O36  1  0.49135400  0.16643000  0.60837300  1
  O  O37  1  0.22913650  0.07843950  0.10763700  1
  O  O38  1  0.50929300  0.01804300  0.83057500  1
  O  O39  1  0.75466550  0.07969550  0.10454100  1
  O  O40  1  0.72913650  0.42156050  0.60763700  1
  O  O41  1  0.00929300  0.48195700  0.33057500  1
  O  O42  1  0.99135400  0.33357000  0.10837300  1
  O  O43  1  0.50611150  0.49983150  0.31213400  1
  O  O44  1  0.50611150  0.50016850  0.81213400  1
  O  O45  1  0.25466550  0.42030450  0.60454100  1
  O  O46  1  0.78687250  0.25926250  0.33519100  1
  O  O47  1  0.23622150  0.25774450  0.32420200  1
  O  O48  1  0.99363250  0.84185350  0.10521200  1
  O  O49  1  0.99363250  0.15814650  0.60521200  1
  O  O50  1  0.78687250  0.74073750  0.83519100  1
  O  O51  1  0.23622150  0.74225550  0.82420200  1
  O  O52  1  0.99135400  0.66643000  0.60837300  1
  O  O53  1  0.72913650  0.57843950  0.10763700  1
  O  O54  1  0.00929300  0.51804300  0.83057500  1
  O  O55  1  0.25466550  0.57969550  0.10454100  1
