# generated using pymatgen
data_Ti8O13
_symmetry_space_group_name_H-M   'P 1'
_cell_length_a   7.79374385
_cell_length_b   7.79374385
_cell_length_c   14.08070857
_cell_angle_alpha   90.00000000
_cell_angle_beta   90.00000000
_cell_angle_gamma   120.00000000
_symmetry_Int_Tables_number   1
_chemical_formula_structural   Ti8O13
_chemical_formula_sum   'Ti24 O39'
_cell_volume   740.70861882
_cell_formula_units_Z   3
loop_
 _symmetry_equiv_pos_site_id
 _symmetry_equiv_pos_as_xyz
  1  'x, y, z'
loop_
 _atom_site_type_symbol
 _atom_site_label
 _atom_site_symmetry_multiplicity
 _atom_site_fract_x
 _atom_site_fract_y
 _atom_site_fract_z
 _atom_site_occupancy
  Ti  Ti0  1  0.69304733  0.12678467  0.25025867  1
  Ti  Ti1  1  0.33333333  0.66666667  0.38996667  1
  Ti  Ti2  1  0.43373733  0.30695267  0.25025867  1
  Ti  Ti3  1  0.79345133  0.76707067  0.08307467  1
  Ti  Ti4  1  0.87321533  0.56626267  0.25025867  1
  Ti  Ti5  1  0.23292933  0.02638067  0.08307467  1
  Ti  Ti6  1  0.33333333  0.66666667  0.94336667  1
  Ti  Ti7  1  0.97361933  0.20654867  0.08307467  1
  Ti  Ti8  1  0.35971400  0.46011800  0.58359200  1
  Ti  Ti9  1  0.00000000  0.00000000  0.72330000  1
  Ti  Ti10  1  0.10040400  0.64028600  0.58359200  1
  Ti  Ti11  1  0.46011800  0.10040400  0.41640800  1
  Ti  Ti12  1  0.53988200  0.89959600  0.58359200  1
  Ti  Ti13  1  0.89959600  0.35971400  0.41640800  1
  Ti  Ti14  1  0.00000000  0.00000000  0.27670000  1
  Ti  Ti15  1  0.64028600  0.53988200  0.41640800  1
  Ti  Ti16  1  0.02638067  0.79345133  0.91692533  1
  Ti  Ti17  1  0.66666667  0.33333333  0.05663333  1
  Ti  Ti18  1  0.76707067  0.97361933  0.91692533  1
  Ti  Ti19  1  0.12678467  0.43373733  0.74974133  1
  Ti  Ti20  1  0.20654867  0.23292933  0.91692533  1
  Ti  Ti21  1  0.56626267  0.69304733  0.74974133  1
  Ti  Ti22  1  0.66666667  0.33333333  0.61003333  1
  Ti  Ti23  1  0.30695267  0.87321533  0.74974133  1
  O  O24  1  0.00000000  0.00000000  0.00000000  1
  O  O25  1  0.49945433  0.91053467  0.33055267  1
  O  O26  1  0.78632433  0.96951367  0.17319367  1
  O  O27  1  0.41108033  0.50054567  0.33055267  1
  O  O28  1  0.63618033  0.51652267  0.16013967  1
  O  O29  1  0.48347733  0.11965767  0.16013967  1
  O  O30  1  0.08946533  0.58891967  0.33055267  1
  O  O31  1  0.57720133  0.74441367  0.00278067  1
  O  O32  1  0.18318933  0.21367567  0.17319367  1
  O  O33  1  0.03048633  0.81681067  0.17319367  1
  O  O34  1  0.25558633  0.83278767  0.00278067  1
  O  O35  1  0.88034233  0.36381967  0.16013967  1
  O  O36  1  0.16721233  0.42279867  0.00278067  1
  O  O37  1  0.66666667  0.33333333  0.33333333  1
  O  O38  1  0.16612100  0.24386800  0.66388600  1
  O  O39  1  0.45299100  0.30284700  0.50652700  1
  O  O40  1  0.07774700  0.83387900  0.66388600  1
  O  O41  1  0.30284700  0.84985600  0.49347300  1
  O  O42  1  0.15014400  0.45299100  0.49347300  1
  O  O43  1  0.75613200  0.92225300  0.66388600  1
  O  O44  1  0.24386800  0.07774700  0.33611400  1
  O  O45  1  0.84985600  0.54700900  0.50652700  1
  O  O46  1  0.69715300  0.15014400  0.50652700  1
  O  O47  1  0.92225300  0.16612100  0.33611400  1
  O  O48  1  0.54700900  0.69715300  0.49347300  1
  O  O49  1  0.83387900  0.75613200  0.33611400  1
  O  O50  1  0.33333333  0.66666667  0.66666667  1
  O  O51  1  0.83278767  0.57720133  0.99721933  1
  O  O52  1  0.11965767  0.63618033  0.83986033  1
  O  O53  1  0.74441367  0.16721233  0.99721933  1
  O  O54  1  0.96951367  0.18318933  0.82680633  1
  O  O55  1  0.81681067  0.78632433  0.82680633  1
  O  O56  1  0.42279867  0.25558633  0.99721933  1
  O  O57  1  0.91053467  0.41108033  0.66944733  1
  O  O58  1  0.51652267  0.88034233  0.83986033  1
  O  O59  1  0.36381967  0.48347733  0.83986033  1
  O  O60  1  0.58891967  0.49945433  0.66944733  1
  O  O61  1  0.21367567  0.03048633  0.82680633  1
  O  O62  1  0.50054567  0.08946533  0.66944733  1
