# generated using pymatgen
data_LiLaNb4O12
_symmetry_space_group_name_H-M   'P 1'
_cell_length_a   17.90203000
_cell_length_b   7.96484000
_cell_length_c   11.30451180
_cell_angle_alpha   90.00000000
_cell_angle_beta   108.77594947
_cell_angle_gamma   90.00000000
_symmetry_Int_Tables_number   1
_chemical_formula_structural   LiLaNb4O12
_chemical_formula_sum   'Li6 La6 Nb24 O72'
_cell_volume   1526.09744435
_cell_formula_units_Z   6
loop_
 _symmetry_equiv_pos_site_id
 _symmetry_equiv_pos_as_xyz
  1  'x, y, z'
loop_
 _atom_site_type_symbol
 _atom_site_label
 _atom_site_symmetry_multiplicity
 _atom_site_fract_x
 _atom_site_fract_y
 _atom_site_fract_z
 _atom_site_occupancy
  Li  Li0  1  0.33359100  0.50000000  0.66725600  1
  Li  Li1  1  0.33312600  0.00000000  0.16632500  1
  Li  Li2  1  0.16700500  0.00000000  0.33354200  1
  Li  Li3  1  0.83359100  0.00000000  0.66725600  1
  Li  Li4  1  0.83312600  0.50000000  0.16632500  1
  Li  Li5  1  0.66700500  0.50000000  0.33354200  1
  La  La6  1  0.16606700  0.50000000  0.33311200  1
  La  La7  1  0.33374300  0.00000000  0.66780500  1
  La  La8  1  0.00017600  0.00000000  0.99896600  1
  La  La9  1  0.66606700  0.00000000  0.33311200  1
  La  La10  1  0.83374300  0.50000000  0.66780500  1
  La  La11  1  0.50017600  0.50000000  0.99896600  1
  Nb  Nb12  1  0.16361200  0.24986200  0.58623200  1
  Nb  Nb13  1  0.00267300  0.25150900  0.74924000  1
  Nb  Nb14  1  0.16764600  0.25236700  0.07937200  1
  Nb  Nb15  1  0.16764600  0.74763300  0.07937200  1
  Nb  Nb16  1  0.49845500  0.75008900  0.25118900  1
  Nb  Nb17  1  0.33205700  0.75023800  0.91830100  1
  Nb  Nb18  1  0.33569450  0.74906950  0.41576900  1
  Nb  Nb19  1  0.00267300  0.74849100  0.74924000  1
  Nb  Nb20  1  0.16361200  0.75013800  0.58623200  1
  Nb  Nb21  1  0.33569450  0.25093050  0.41576900  1
  Nb  Nb22  1  0.33205700  0.24976200  0.91830100  1
  Nb  Nb23  1  0.49845500  0.24991100  0.25118900  1
  Nb  Nb24  1  0.66361200  0.74986200  0.58623200  1
  Nb  Nb25  1  0.50267300  0.75150900  0.74924000  1
  Nb  Nb26  1  0.66764600  0.75236700  0.07937200  1
  Nb  Nb27  1  0.66764600  0.24763300  0.07937200  1
  Nb  Nb28  1  0.99845500  0.25008900  0.25118900  1
  Nb  Nb29  1  0.83205700  0.25023800  0.91830100  1
  Nb  Nb30  1  0.83569450  0.24906950  0.41576900  1
  Nb  Nb31  1  0.50267300  0.24849100  0.74924000  1
  Nb  Nb32  1  0.66361200  0.25013800  0.58623200  1
  Nb  Nb33  1  0.83569450  0.75093050  0.41576900  1
  Nb  Nb34  1  0.83205700  0.74976200  0.91830100  1
  Nb  Nb35  1  0.99845500  0.74991100  0.25118900  1
  O  O36  1  0.07693050  0.23926450  0.92307700  1
  O  O37  1  0.08430650  0.24718650  0.16855400  1
  O  O38  1  0.08320450  0.24998650  0.66681500  1
  O  O39  1  0.24349650  0.25156250  0.25666700  1
  O  O40  1  0.09101150  0.25598450  0.40964700  1
  O  O41  1  0.32429000  0.50000000  0.41913600  1
  O  O42  1  0.34204700  0.50000000  0.91375300  1
  O  O43  1  0.16442700  0.50000000  0.09663500  1
  O  O44  1  0.17290900  0.50000000  0.57115100  1
  O  O45  1  0.00802200  0.50000000  0.24917200  1
  O  O46  1  0.49366800  0.50000000  0.76153000  1
  O  O47  1  0.09101150  0.74401550  0.40964700  1
  O  O48  1  0.24349650  0.74843750  0.25666700  1
  O  O49  1  0.42206600  0.74373000  0.07792400  1
  O  O50  1  0.08320450  0.75001350  0.66681500  1
  O  O51  1  0.08430650  0.75281350  0.16855400  1
  O  O52  1  0.41573300  0.74777200  0.83228200  1
  O  O53  1  0.25001400  0.75063200  0.49901100  1
  O  O54  1  0.25727650  0.75547950  0.74182400  1
  O  O55  1  0.40914600  0.75537400  0.59086600  1
  O  O56  1  0.07693050  0.76073550  0.92307700  1
  O  O57  1  0.41317400  0.76136300  0.32607400  1
  O  O58  1  0.25349400  0.76126600  0.00724100  1
  O  O59  1  0.48988600  0.00000000  0.74964800  1
  O  O60  1  0.33612400  0.00000000  0.90647000  1
  O  O61  1  0.17637500  0.00000000  0.57924300  1
  O  O62  1  0.15933500  0.00000000  0.08894900  1
  O  O63  1  0.32788200  0.00000000  0.42493400  1
  O  O64  1  0.00495600  0.00000000  0.23945400  1
  O  O65  1  0.25349400  0.23873400  0.00724100  1
  O  O66  1  0.41317400  0.23863700  0.32607400  1
  O  O67  1  0.40914600  0.24462600  0.59086600  1
  O  O68  1  0.25727650  0.24452050  0.74182400  1
  O  O69  1  0.25001400  0.24936800  0.49901100  1
  O  O70  1  0.41573300  0.25222800  0.83228200  1
  O  O71  1  0.42206600  0.25627000  0.07792400  1
  O  O72  1  0.57693050  0.73926450  0.92307700  1
  O  O73  1  0.58430650  0.74718650  0.16855400  1
  O  O74  1  0.58320450  0.74998650  0.66681500  1
  O  O75  1  0.74349650  0.75156250  0.25666700  1
  O  O76  1  0.59101150  0.75598450  0.40964700  1
  O  O77  1  0.82429000  0.00000000  0.41913600  1
  O  O78  1  0.84204700  0.00000000  0.91375300  1
  O  O79  1  0.66442700  0.00000000  0.09663500  1
  O  O80  1  0.67290900  0.00000000  0.57115100  1
  O  O81  1  0.50802200  0.00000000  0.24917200  1
  O  O82  1  0.99366800  0.00000000  0.76153000  1
  O  O83  1  0.59101150  0.24401550  0.40964700  1
  O  O84  1  0.74349650  0.24843750  0.25666700  1
  O  O85  1  0.92206600  0.24373000  0.07792400  1
  O  O86  1  0.58320450  0.25001350  0.66681500  1
  O  O87  1  0.58430650  0.25281350  0.16855400  1
  O  O88  1  0.91573300  0.24777200  0.83228200  1
  O  O89  1  0.75001400  0.25063200  0.49901100  1
  O  O90  1  0.75727650  0.25547950  0.74182400  1
  O  O91  1  0.90914600  0.25537400  0.59086600  1
  O  O92  1  0.57693050  0.26073550  0.92307700  1
  O  O93  1  0.91317400  0.26136300  0.32607400  1
  O  O94  1  0.75349400  0.26126600  0.00724100  1
  O  O95  1  0.98988600  0.50000000  0.74964800  1
  O  O96  1  0.83612400  0.50000000  0.90647000  1
  O  O97  1  0.67637500  0.50000000  0.57924300  1
  O  O98  1  0.65933500  0.50000000  0.08894900  1
  O  O99  1  0.82788200  0.50000000  0.42493400  1
  O  O100  1  0.50495600  0.50000000  0.23945400  1
  O  O101  1  0.75349400  0.73873400  0.00724100  1
  O  O102  1  0.91317400  0.73863700  0.32607400  1
  O  O103  1  0.90914600  0.74462600  0.59086600  1
  O  O104  1  0.75727650  0.74452050  0.74182400  1
  O  O105  1  0.75001400  0.74936800  0.49901100  1
  O  O106  1  0.91573300  0.75222800  0.83228200  1
  O  O107  1  0.92206600  0.75627000  0.07792400  1
