# generated using pymatgen
data_Li3Mn2Fe(BO3)3
_symmetry_space_group_name_H-M   'P 1'
_cell_length_a   8.25393200
_cell_length_b   3.17052300
_cell_length_c   14.31657373
_cell_angle_alpha   90.00000000
_cell_angle_beta   90.06326457
_cell_angle_gamma   90.00000000
_symmetry_Int_Tables_number   1
_chemical_formula_structural   Li3Mn2Fe(BO3)3
_chemical_formula_sum   'Li6 Mn4 Fe2 B6 O18'
_cell_volume   374.65421597
_cell_formula_units_Z   2
loop_
 _symmetry_equiv_pos_site_id
 _symmetry_equiv_pos_as_xyz
  1  'x, y, z'
loop_
 _atom_site_type_symbol
 _atom_site_label
 _atom_site_symmetry_multiplicity
 _atom_site_fract_x
 _atom_site_fract_y
 _atom_site_fract_z
 _atom_site_occupancy
  Li  Li0  1  0.29194300  0.50000000  0.99109800  1
  Li  Li1  1  0.34025800  0.50000000  0.35783700  1
  Li  Li2  1  0.36654300  0.50000000  0.65100300  1
  Li  Li3  1  0.79336400  0.50000000  0.49153300  1
  Li  Li4  1  0.84186400  0.50000000  0.85789800  1
  Li  Li5  1  0.86814000  0.50000000  0.15066400  1
  Mn  Mn6  1  0.13541300  0.00000000  0.50579100  1
  Mn  Mn7  1  0.63335700  0.00000000  0.00611200  1
  Mn  Mn8  1  0.67359000  0.00000000  0.31460900  1
  Mn  Mn9  1  0.69111000  0.00000000  0.67977000  1
  Fe  Fe10  1  0.17559800  0.00000000  0.81613600  1
  Fe  Fe11  1  0.18794700  0.00000000  0.17964400  1
  B  B12  1  0.00169200  0.50000000  0.66770500  1
  B  B13  1  0.00117300  0.00000000  0.99914000  1
  B  B14  1  0.00104200  0.50000000  0.33218900  1
  B  B15  1  0.49739800  0.50000000  0.16701400  1
  B  B16  1  0.50009100  0.00000000  0.50001300  1
  B  B17  1  0.49774500  0.50000000  0.83346700  1
  O  O18  1  0.01211200  0.50000000  0.42892900  1
  O  O19  1  0.01819300  0.50000000  0.76429200  1
  O  O20  1  0.13874100  0.50000000  0.61085200  1
  O  O21  1  0.14045900  0.50000000  0.27767200  1
  O  O22  1  0.15405100  0.00000000  0.95771200  1
  O  O23  1  0.34431000  0.50000000  0.12665500  1
  O  O24  1  0.34641500  0.50000000  0.79079800  1
  O  O25  1  0.36426700  0.00000000  0.44215400  1
  O  O26  1  0.48141400  0.00000000  0.59676400  1
  O  O27  1  0.50944600  0.50000000  0.93030500  1
  O  O28  1  0.51375700  0.50000000  0.26389100  1
  O  O29  1  0.63645400  0.50000000  0.11130800  1
  O  O30  1  0.63777800  0.50000000  0.77979200  1
  O  O31  1  0.65500000  0.00000000  0.46095600  1
  O  O32  1  0.84837300  0.50000000  0.62655500  1
  O  O33  1  0.84974000  0.50000000  0.28958900  1
  O  O34  1  0.86337900  0.00000000  0.94366500  1
  O  O35  1  0.98784000  0.00000000  0.09648900  1
