# generated using pymatgen
data_CaZnSO
_symmetry_space_group_name_H-M   'P 1'
_cell_length_a   3.77892012
_cell_length_b   3.77892012
_cell_length_c   11.51509400
_cell_angle_alpha   90.00000000
_cell_angle_beta   90.00000000
_cell_angle_gamma   120.00000000
_symmetry_Int_Tables_number   1
_chemical_formula_structural   CaZnSO
_chemical_formula_sum   'Ca2 Zn2 S2 O2'
_cell_volume   142.40772324
_cell_formula_units_Z   2
loop_
 _symmetry_equiv_pos_site_id
 _symmetry_equiv_pos_as_xyz
  1  'x, y, z'
loop_
 _atom_site_type_symbol
 _atom_site_label
 _atom_site_symmetry_multiplicity
 _atom_site_fract_x
 _atom_site_fract_y
 _atom_site_fract_z
 _atom_site_occupancy
  Ca  Ca0  1  0.66666667  0.33333333  0.77186400  1
  Ca  Ca1  1  0.33333333  0.66666667  0.27186400  1
  Zn  Zn2  1  0.00000000  0.00000000  0.00056200  1
  Zn  Zn3  1  0.00000000  0.00000000  0.50056200  1
  S  S4  1  0.33333333  0.66666667  0.58254900  1
  S  S5  1  0.66666667  0.33333333  0.08254900  1
  O  O6  1  0.00000000  0.00000000  0.33271600  1
  O  O7  1  0.00000000  0.00000000  0.83271600  1
