# generated using pymatgen
data_Li2FeCo3O8
_symmetry_space_group_name_H-M   'P 1'
_cell_length_a   5.79469000
_cell_length_b   9.99473400
_cell_length_c   9.41620247
_cell_angle_alpha   90.00000000
_cell_angle_beta   90.59835434
_cell_angle_gamma   90.00000000
_symmetry_Int_Tables_number   1
_chemical_formula_structural   Li2FeCo3O8
_chemical_formula_sum   'Li8 Fe4 Co12 O32'
_cell_volume   545.32267069
_cell_formula_units_Z   4
loop_
 _symmetry_equiv_pos_site_id
 _symmetry_equiv_pos_as_xyz
  1  'x, y, z'
loop_
 _atom_site_type_symbol
 _atom_site_label
 _atom_site_symmetry_multiplicity
 _atom_site_fract_x
 _atom_site_fract_y
 _atom_site_fract_z
 _atom_site_occupancy
  Li  Li0  1  0.50459800  0.83433100  0.10561900  1
  Li  Li1  1  0.99893700  0.99906300  0.00207800  1
  Li  Li2  1  0.99893700  0.00093700  0.50207800  1
  Li  Li3  1  0.50459800  0.16566900  0.60561900  1
  Li  Li4  1  0.00459800  0.33433100  0.10561900  1
  Li  Li5  1  0.49893700  0.49906300  0.00207800  1
  Li  Li6  1  0.49893700  0.50093700  0.50207800  1
  Li  Li7  1  0.00459800  0.66566900  0.60561900  1
  Fe  Fe8  1  0.49291850  0.83189450  0.51126800  1
  Fe  Fe9  1  0.49291850  0.16810550  0.01126800  1
  Fe  Fe10  1  0.99291850  0.33189450  0.51126800  1
  Fe  Fe11  1  0.99291850  0.66810550  0.01126800  1
  Co  Co12  1  0.25375150  0.91534950  0.78531800  1
  Co  Co13  1  0.74688150  0.91542150  0.78687900  1
  Co  Co14  1  0.49952500  0.66860400  0.78712600  1
  Co  Co15  1  0.49952500  0.33139600  0.28712600  1
  Co  Co16  1  0.25375150  0.08465050  0.28531800  1
  Co  Co17  1  0.74688150  0.08457850  0.28687900  1
  Co  Co18  1  0.75375150  0.41534950  0.78531800  1
  Co  Co19  1  0.24688150  0.41542150  0.78687900  1
  Co  Co20  1  0.99952500  0.16860400  0.78712600  1
  Co  Co21  1  0.99952500  0.83139600  0.28712600  1
  Co  Co22  1  0.75375150  0.58465050  0.28531800  1
  Co  Co23  1  0.24688150  0.58457850  0.28687900  1
  O  O24  1  0.23666200  0.91250300  0.39715900  1
  O  O25  1  0.51382100  0.98098400  0.66375100  1
  O  O26  1  0.51060600  0.82987500  0.89304800  1
  O  O27  1  0.98855050  0.00309450  0.69014300  1
  O  O28  1  0.98855050  0.99690550  0.19014300  1
  O  O29  1  0.75995300  0.91904200  0.39103300  1
  O  O30  1  0.28473550  0.75134050  0.66585200  1
  O  O31  1  0.72032650  0.75933950  0.67178700  1
  O  O32  1  0.48858500  0.33758500  0.89502000  1
  O  O33  1  0.48858500  0.66241500  0.39502000  1
  O  O34  1  0.28473550  0.24865950  0.16585200  1
  O  O35  1  0.72032650  0.24066050  0.17178700  1
  O  O36  1  0.51060600  0.17012500  0.39304800  1
  O  O37  1  0.23666200  0.08749700  0.89715900  1
  O  O38  1  0.51382100  0.01901600  0.16375100  1
  O  O39  1  0.75995300  0.08095800  0.89103300  1
  O  O40  1  0.73666200  0.41250300  0.39715900  1
  O  O41  1  0.01382100  0.48098400  0.66375100  1
  O  O42  1  0.01060600  0.32987500  0.89304800  1
  O  O43  1  0.48855050  0.50309450  0.69014300  1
  O  O44  1  0.48855050  0.49690550  0.19014300  1
  O  O45  1  0.25995300  0.41904200  0.39103300  1
  O  O46  1  0.78473550  0.25134050  0.66585200  1
  O  O47  1  0.22032650  0.25933950  0.67178700  1
  O  O48  1  0.98858500  0.83758500  0.89502000  1
  O  O49  1  0.98858500  0.16241500  0.39502000  1
  O  O50  1  0.78473550  0.74865950  0.16585200  1
  O  O51  1  0.22032650  0.74066050  0.17178700  1
  O  O52  1  0.01060600  0.67012500  0.39304800  1
  O  O53  1  0.73666200  0.58749700  0.89715900  1
  O  O54  1  0.01382100  0.51901600  0.16375100  1
  O  O55  1  0.25995300  0.58095800  0.89103300  1
