# generated using pymatgen
data_Bi14SO24
_symmetry_space_group_name_H-M   'P 1'
_cell_length_a   12.47692200
_cell_length_b   17.30959400
_cell_length_c   8.80437110
_cell_angle_alpha   90.00000000
_cell_angle_beta   134.92041522
_cell_angle_gamma   90.00000000
_symmetry_Int_Tables_number   1
_chemical_formula_structural   Bi14SO24
_chemical_formula_sum   'Bi28 S2 O48'
_cell_volume   1346.41855538
_cell_formula_units_Z   2
loop_
 _symmetry_equiv_pos_site_id
 _symmetry_equiv_pos_as_xyz
  1  'x, y, z'
loop_
 _atom_site_type_symbol
 _atom_site_label
 _atom_site_symmetry_multiplicity
 _atom_site_fract_x
 _atom_site_fract_y
 _atom_site_fract_z
 _atom_site_occupancy
  Bi  Bi0  1  0.21604300  0.00000000  0.77272500  1
  Bi  Bi1  1  0.79911700  0.32988700  0.18784000  1
  Bi  Bi2  1  0.89014200  0.16929200  0.59257900  1
  Bi  Bi3  1  0.44477900  0.00000000  0.65950300  1
  Bi  Bi4  1  0.00010800  0.34056700  0.00288800  1
  Bi  Bi5  1  0.56071000  0.00000000  0.34818200  1
  Bi  Bi6  1  0.10974350  0.16785750  0.40725300  1
  Bi  Bi7  1  0.20127650  0.33161950  0.80969300  1
  Bi  Bi8  1  0.78826000  0.00000000  0.22821000  1
  Bi  Bi9  1  0.29911700  0.17011300  0.18784000  1
  Bi  Bi10  1  0.39014200  0.33070800  0.59257900  1
  Bi  Bi11  1  0.50010800  0.15943300  0.00288800  1
  Bi  Bi12  1  0.60974350  0.33214250  0.40725300  1
  Bi  Bi13  1  0.70127650  0.16838050  0.80969300  1
  Bi  Bi14  1  0.71604300  0.50000000  0.77272500  1
  Bi  Bi15  1  0.29911700  0.82988700  0.18784000  1
  Bi  Bi16  1  0.39014200  0.66929200  0.59257900  1
  Bi  Bi17  1  0.94477900  0.50000000  0.65950300  1
  Bi  Bi18  1  0.50010800  0.84056700  0.00288800  1
  Bi  Bi19  1  0.06071000  0.50000000  0.34818200  1
  Bi  Bi20  1  0.60974350  0.66785750  0.40725300  1
  Bi  Bi21  1  0.70127650  0.83161950  0.80969300  1
  Bi  Bi22  1  0.28826000  0.50000000  0.22821000  1
  Bi  Bi23  1  0.79911700  0.67011300  0.18784000  1
  Bi  Bi24  1  0.89014200  0.83070800  0.59257900  1
  Bi  Bi25  1  0.00010800  0.65943300  0.00288800  1
  Bi  Bi26  1  0.10974350  0.83214250  0.40725300  1
  Bi  Bi27  1  0.20127650  0.66838050  0.80969300  1
  S  S28  1  0.97528400  0.00000000  0.99387000  1
  S  S29  1  0.47528400  0.50000000  0.99387000  1
  O  O30  1  0.75287900  0.25499100  0.67630300  1
  O  O31  1  0.81769900  0.42186900  0.69577700  1
  O  O32  1  0.87708850  0.42114850  0.05987300  1
  O  O33  1  0.92595700  0.25372700  0.16947300  1
  O  O34  1  0.99965250  0.38063450  0.50019100  1
  O  O35  1  0.99936500  0.11947600  0.49964900  1
  O  O36  1  0.04851450  0.07079550  0.00257500  1
  O  O37  1  0.07713450  0.25486250  0.82986800  1
  O  O38  1  0.12246250  0.42176050  0.93825200  1
  O  O39  1  0.18361450  0.42107950  0.30678300  1
  O  O40  1  0.25287900  0.24500900  0.67630300  1
  O  O41  1  0.24546550  0.25463950  0.32241800  1
  O  O42  1  0.31769900  0.07813100  0.69577700  1
  O  O43  1  0.80991800  0.00000000  0.79014300  1
  O  O44  1  0.37708850  0.07885150  0.05987300  1
  O  O45  1  0.42595700  0.24627300  0.16947300  1
  O  O46  1  0.99336900  0.00000000  0.18174300  1
  O  O47  1  0.49936500  0.38052400  0.49964900  1
  O  O48  1  0.49965250  0.11936550  0.50019100  1
  O  O49  1  0.54851450  0.42920450  0.00257500  1
  O  O50  1  0.57713450  0.24513750  0.82986800  1
  O  O51  1  0.62246250  0.07823950  0.93825200  1
  O  O52  1  0.68361450  0.07892050  0.30678300  1
  O  O53  1  0.74546550  0.24536050  0.32241800  1
  O  O54  1  0.25287900  0.75499100  0.67630300  1
  O  O55  1  0.31769900  0.92186900  0.69577700  1
  O  O56  1  0.37708850  0.92114850  0.05987300  1
  O  O57  1  0.42595700  0.75372700  0.16947300  1
  O  O58  1  0.49965250  0.88063450  0.50019100  1
  O  O59  1  0.49936500  0.61947600  0.49964900  1
  O  O60  1  0.54851450  0.57079550  0.00257500  1
  O  O61  1  0.57713450  0.75486250  0.82986800  1
  O  O62  1  0.62246250  0.92176050  0.93825200  1
  O  O63  1  0.68361450  0.92107950  0.30678300  1
  O  O64  1  0.75287900  0.74500900  0.67630300  1
  O  O65  1  0.74546550  0.75463950  0.32241800  1
  O  O66  1  0.81769900  0.57813100  0.69577700  1
  O  O67  1  0.30991800  0.50000000  0.79014300  1
  O  O68  1  0.87708850  0.57885150  0.05987300  1
  O  O69  1  0.92595700  0.74627300  0.16947300  1
  O  O70  1  0.49336900  0.50000000  0.18174300  1
  O  O71  1  0.99936500  0.88052400  0.49964900  1
  O  O72  1  0.99965250  0.61936550  0.50019100  1
  O  O73  1  0.04851450  0.92920450  0.00257500  1
  O  O74  1  0.07713450  0.74513750  0.82986800  1
  O  O75  1  0.12246250  0.57823950  0.93825200  1
  O  O76  1  0.18361450  0.57892050  0.30678300  1
  O  O77  1  0.24546550  0.74536050  0.32241800  1
