# generated using pymatgen
data_Li2Mn2F7
_symmetry_space_group_name_H-M   'P 1'
_cell_length_a   6.72626600
_cell_length_b   8.74774000
_cell_length_c   10.69586076
_cell_angle_alpha   90.00000000
_cell_angle_beta   104.49517157
_cell_angle_gamma   90.00000000
_symmetry_Int_Tables_number   1
_chemical_formula_structural   Li2Mn2F7
_chemical_formula_sum   'Li8 Mn8 F28'
_cell_volume   609.30774684
_cell_formula_units_Z   4
loop_
 _symmetry_equiv_pos_site_id
 _symmetry_equiv_pos_as_xyz
  1  'x, y, z'
loop_
 _atom_site_type_symbol
 _atom_site_label
 _atom_site_symmetry_multiplicity
 _atom_site_fract_x
 _atom_site_fract_y
 _atom_site_fract_z
 _atom_site_occupancy
  Li  Li0  1  0.45312750  0.81905350  0.51014800  1
  Li  Li1  1  0.54687250  0.81905350  0.98985200  1
  Li  Li2  1  0.45312750  0.18094650  0.01014800  1
  Li  Li3  1  0.54687250  0.18094650  0.48985200  1
  Li  Li4  1  0.95312750  0.31905350  0.51014800  1
  Li  Li5  1  0.04687250  0.31905350  0.98985200  1
  Li  Li6  1  0.95312750  0.68094650  0.01014800  1
  Li  Li7  1  0.04687250  0.68094650  0.48985200  1
  Mn  Mn8  1  0.74958300  0.01334500  0.80947200  1
  Mn  Mn9  1  0.74958300  0.98665500  0.30947200  1
  Mn  Mn10  1  0.25041700  0.01334500  0.69052800  1
  Mn  Mn11  1  0.25041700  0.98665500  0.19052800  1
  Mn  Mn12  1  0.24958300  0.51334500  0.80947200  1
  Mn  Mn13  1  0.24958300  0.48665500  0.30947200  1
  Mn  Mn14  1  0.75041700  0.51334500  0.69052800  1
  Mn  Mn15  1  0.75041700  0.48665500  0.19052800  1
  F  F16  1  0.33173850  0.70772750  0.88826200  1
  F  F17  1  0.76780200  0.81084200  0.88952200  1
  F  F18  1  0.52049900  0.02617700  0.63020300  1
  F  F19  1  0.33173850  0.29227250  0.38826200  1
  F  F20  1  0.50000000  0.49053800  0.75000000  1
  F  F21  1  0.76780200  0.18915800  0.38952200  1
  F  F22  1  0.52049900  0.97382300  0.13020300  1
  F  F23  1  0.47950100  0.02617700  0.86979700  1
  F  F24  1  0.23219800  0.81084200  0.61047800  1
  F  F25  1  0.50000000  0.50946200  0.25000000  1
  F  F26  1  0.66826150  0.70772750  0.61173800  1
  F  F27  1  0.47950100  0.97382300  0.36979700  1
  F  F28  1  0.23219800  0.18915800  0.11047800  1
  F  F29  1  0.66826150  0.29227250  0.11173800  1
  F  F30  1  0.83173850  0.20772750  0.88826200  1
  F  F31  1  0.26780200  0.31084200  0.88952200  1
  F  F32  1  0.02049900  0.52617700  0.63020300  1
  F  F33  1  0.83173850  0.79227250  0.38826200  1
  F  F34  1  0.00000000  0.99053800  0.75000000  1
  F  F35  1  0.26780200  0.68915800  0.38952200  1
  F  F36  1  0.02049900  0.47382300  0.13020300  1
  F  F37  1  0.97950100  0.52617700  0.86979700  1
  F  F38  1  0.73219800  0.31084200  0.61047800  1
  F  F39  1  0.00000000  0.00946200  0.25000000  1
  F  F40  1  0.16826150  0.20772750  0.61173800  1
  F  F41  1  0.97950100  0.47382300  0.36979700  1
  F  F42  1  0.73219800  0.68915800  0.11047800  1
  F  F43  1  0.16826150  0.79227250  0.11173800  1
