# generated using pymatgen
data_Hf3N2O3
_symmetry_space_group_name_H-M   'P 1'
_cell_length_a   4.04105200
_cell_length_b   10.54351600
_cell_length_c   10.56948300
_cell_angle_alpha   90.00000000
_cell_angle_beta   90.00000000
_cell_angle_gamma   90.00000000
_symmetry_Int_Tables_number   1
_chemical_formula_structural   Hf3N2O3
_chemical_formula_sum   'Hf12 N8 O12'
_cell_volume   450.33286738
_cell_formula_units_Z   4
loop_
 _symmetry_equiv_pos_site_id
 _symmetry_equiv_pos_as_xyz
  1  'x, y, z'
loop_
 _atom_site_type_symbol
 _atom_site_label
 _atom_site_symmetry_multiplicity
 _atom_site_fract_x
 _atom_site_fract_y
 _atom_site_fract_z
 _atom_site_occupancy
  Hf  Hf0  1  0.00000000  0.19188100  0.75000000  1
  Hf  Hf1  1  0.00000000  0.14393800  0.44333400  1
  Hf  Hf2  1  0.00000000  0.14393800  0.05666600  1
  Hf  Hf3  1  0.50000000  0.30811900  0.25000000  1
  Hf  Hf4  1  0.50000000  0.35606200  0.55666600  1
  Hf  Hf5  1  0.50000000  0.35606200  0.94333400  1
  Hf  Hf6  1  0.50000000  0.69188100  0.75000000  1
  Hf  Hf7  1  0.50000000  0.64393800  0.44333400  1
  Hf  Hf8  1  0.50000000  0.64393800  0.05666600  1
  Hf  Hf9  1  0.00000000  0.80811900  0.25000000  1
  Hf  Hf10  1  0.00000000  0.85606200  0.55666600  1
  Hf  Hf11  1  0.00000000  0.85606200  0.94333400  1
  N  N12  1  0.00000000  0.30034400  0.92105300  1
  N  N13  1  0.00000000  0.30034400  0.57894700  1
  N  N14  1  0.50000000  0.19965600  0.07894700  1
  N  N15  1  0.50000000  0.19965600  0.42105300  1
  N  N16  1  0.50000000  0.80034400  0.92105300  1
  N  N17  1  0.50000000  0.80034400  0.57894700  1
  N  N18  1  0.00000000  0.69965600  0.07894700  1
  N  N19  1  0.00000000  0.69965600  0.42105300  1
  O  O20  1  0.00000000  0.24775200  0.25000000  1
  O  O21  1  0.00000000  0.04347000  0.61597300  1
  O  O22  1  0.00000000  0.04347000  0.88402700  1
  O  O23  1  0.50000000  0.25224800  0.75000000  1
  O  O24  1  0.50000000  0.45653000  0.38402700  1
  O  O25  1  0.50000000  0.45653000  0.11597300  1
  O  O26  1  0.50000000  0.74775200  0.25000000  1
  O  O27  1  0.50000000  0.54347000  0.61597300  1
  O  O28  1  0.50000000  0.54347000  0.88402700  1
  O  O29  1  0.00000000  0.75224800  0.75000000  1
  O  O30  1  0.00000000  0.95653000  0.38402700  1
  O  O31  1  0.00000000  0.95653000  0.11597300  1
