# generated using pymatgen
data_Li2Cr3CuO8
_symmetry_space_group_name_H-M   'P 1'
_cell_length_a   5.85129000
_cell_length_b   10.11835200
_cell_length_c   9.56498284
_cell_angle_alpha   90.00000000
_cell_angle_beta   90.43037909
_cell_angle_gamma   90.00000000
_symmetry_Int_Tables_number   1
_chemical_formula_structural   Li2Cr3CuO8
_chemical_formula_sum   'Li8 Cr12 Cu4 O32'
_cell_volume   566.28277262
_cell_formula_units_Z   4
loop_
 _symmetry_equiv_pos_site_id
 _symmetry_equiv_pos_as_xyz
  1  'x, y, z'
loop_
 _atom_site_type_symbol
 _atom_site_label
 _atom_site_symmetry_multiplicity
 _atom_site_fract_x
 _atom_site_fract_y
 _atom_site_fract_z
 _atom_site_occupancy
  Li  Li0  1  0.50187300  0.83431600  0.10041200  1
  Li  Li1  1  0.99714500  0.00003400  0.00346000  1
  Li  Li2  1  0.99714500  0.99996600  0.50346000  1
  Li  Li3  1  0.50187300  0.16568400  0.60041200  1
  Li  Li4  1  0.00187300  0.33431600  0.10041200  1
  Li  Li5  1  0.49714500  0.50003400  0.00346000  1
  Li  Li6  1  0.49714500  0.49996600  0.50346000  1
  Li  Li7  1  0.00187300  0.66568400  0.60041200  1
  Cr  Cr8  1  0.25800300  0.91368700  0.78444100  1
  Cr  Cr9  1  0.75067250  0.91468950  0.79056200  1
  Cr  Cr10  1  0.50435000  0.66636500  0.79120300  1
  Cr  Cr11  1  0.50435000  0.33363500  0.29120300  1
  Cr  Cr12  1  0.25800300  0.08631300  0.28444100  1
  Cr  Cr13  1  0.75067250  0.08531050  0.29056200  1
  Cr  Cr14  1  0.75800300  0.41368700  0.78444100  1
  Cr  Cr15  1  0.25067250  0.41468950  0.79056200  1
  Cr  Cr16  1  0.00435000  0.16636500  0.79120300  1
  Cr  Cr17  1  0.00435000  0.83363500  0.29120300  1
  Cr  Cr18  1  0.75800300  0.58631300  0.28444100  1
  Cr  Cr19  1  0.25067250  0.58531050  0.29056200  1
  Cu  Cu20  1  0.49422050  0.83105450  0.51690200  1
  Cu  Cu21  1  0.49422050  0.16894550  0.01690200  1
  Cu  Cu22  1  0.99422050  0.33105450  0.51690200  1
  Cu  Cu23  1  0.99422050  0.66894550  0.01690200  1
  O  O24  1  0.23794150  0.91468850  0.39436400  1
  O  O25  1  0.50784150  0.97995250  0.66447000  1
  O  O26  1  0.50412950  0.83219650  0.89735000  1
  O  O27  1  0.99896950  0.99949150  0.68674700  1
  O  O28  1  0.99896950  0.00050850  0.18674700  1
  O  O29  1  0.75364200  0.91744000  0.38960100  1
  O  O30  1  0.28223350  0.75493350  0.66562300  1
  O  O31  1  0.71826050  0.75942250  0.66763700  1
  O  O32  1  0.49056800  0.33789800  0.89330600  1
  O  O33  1  0.49056800  0.66210200  0.39330600  1
  O  O34  1  0.28223350  0.24506650  0.16562300  1
  O  O35  1  0.71826050  0.24057750  0.16763700  1
  O  O36  1  0.50412950  0.16780350  0.39735000  1
  O  O37  1  0.23794150  0.08531150  0.89436400  1
  O  O38  1  0.50784150  0.02004750  0.16447000  1
  O  O39  1  0.75364200  0.08256000  0.88960100  1
  O  O40  1  0.73794150  0.41468850  0.39436400  1
  O  O41  1  0.00784150  0.47995250  0.66447000  1
  O  O42  1  0.00412950  0.33219650  0.89735000  1
  O  O43  1  0.49896950  0.49949150  0.68674700  1
  O  O44  1  0.49896950  0.50050850  0.18674700  1
  O  O45  1  0.25364200  0.41744000  0.38960100  1
  O  O46  1  0.78223350  0.25493350  0.66562300  1
  O  O47  1  0.21826050  0.25942250  0.66763700  1
  O  O48  1  0.99056800  0.83789800  0.89330600  1
  O  O49  1  0.99056800  0.16210200  0.39330600  1
  O  O50  1  0.78223350  0.74506650  0.16562300  1
  O  O51  1  0.21826050  0.74057750  0.16763700  1
  O  O52  1  0.00412950  0.66780350  0.39735000  1
  O  O53  1  0.73794150  0.58531150  0.89436400  1
  O  O54  1  0.00784150  0.52004750  0.16447000  1
  O  O55  1  0.25364200  0.58256000  0.88960100  1
