# generated using pymatgen
data_Na3VO3
_symmetry_space_group_name_H-M   'P 1'
_cell_length_a   13.72668587
_cell_length_b   10.87989500
_cell_length_c   6.17217166
_cell_angle_alpha   90.00000000
_cell_angle_beta   115.87379589
_cell_angle_gamma   90.00000000
_symmetry_Int_Tables_number   1
_chemical_formula_structural   Na3VO3
_chemical_formula_sum   'Na24 V8 O24'
_cell_volume   829.38055496
_cell_formula_units_Z   8
loop_
 _symmetry_equiv_pos_site_id
 _symmetry_equiv_pos_as_xyz
  1  'x, y, z'
loop_
 _atom_site_type_symbol
 _atom_site_label
 _atom_site_symmetry_multiplicity
 _atom_site_fract_x
 _atom_site_fract_y
 _atom_site_fract_z
 _atom_site_occupancy
  Na  Na0  1  0.00000000  0.55979900  0.25000000  1
  Na  Na1  1  0.00000000  0.44020100  0.75000000  1
  Na  Na2  1  0.00000000  0.28032500  0.25000000  1
  Na  Na3  1  0.00000000  0.71967500  0.75000000  1
  Na  Na4  1  0.41061500  0.41520500  0.44897650  1
  Na  Na5  1  0.41061500  0.58479500  0.94897650  1
  Na  Na6  1  0.58938500  0.41520500  0.05102350  1
  Na  Na7  1  0.58938500  0.58479500  0.55102350  1
  Na  Na8  1  0.20162800  0.56636900  0.07601150  1
  Na  Na9  1  0.20162800  0.43363100  0.57601150  1
  Na  Na10  1  0.79837200  0.56636900  0.42398850  1
  Na  Na11  1  0.79837200  0.43363100  0.92398850  1
  Na  Na12  1  0.50000000  0.05979900  0.25000000  1
  Na  Na13  1  0.50000000  0.94020100  0.75000000  1
  Na  Na14  1  0.50000000  0.78032500  0.25000000  1
  Na  Na15  1  0.50000000  0.21967500  0.75000000  1
  Na  Na16  1  0.91061500  0.91520500  0.44897650  1
  Na  Na17  1  0.91061500  0.08479500  0.94897650  1
  Na  Na18  1  0.08938500  0.91520500  0.05102350  1
  Na  Na19  1  0.08938500  0.08479500  0.55102350  1
  Na  Na20  1  0.70162800  0.06636900  0.07601150  1
  Na  Na21  1  0.70162800  0.93363100  0.57601150  1
  Na  Na22  1  0.29837200  0.06636900  0.42398850  1
  Na  Na23  1  0.29837200  0.93363100  0.92398850  1
  V  V24  1  0.16945100  0.74492600  0.59273450  1
  V  V25  1  0.83054900  0.25507400  0.40726550  1
  V  V26  1  0.16945100  0.25507400  0.09273450  1
  V  V27  1  0.83054900  0.74492600  0.90726550  1
  V  V28  1  0.66945100  0.24492600  0.59273450  1
  V  V29  1  0.33054900  0.75507400  0.40726550  1
  V  V30  1  0.66945100  0.75507400  0.09273450  1
  V  V31  1  0.33054900  0.24492600  0.90726550  1
  O  O32  1  0.16922400  0.73786000  0.27203550  1
  O  O33  1  0.16922400  0.26214000  0.77203550  1
  O  O34  1  0.83077600  0.73786000  0.22796450  1
  O  O35  1  0.83077600  0.26214000  0.72796450  1
  O  O36  1  0.11456500  0.40344300  0.16223650  1
  O  O37  1  0.11456500  0.59655700  0.66223650  1
  O  O38  1  0.88543500  0.40344300  0.33776350  1
  O  O39  1  0.88543500  0.59655700  0.83776350  1
  O  O40  1  0.10921350  0.11816850  0.18427950  1
  O  O41  1  0.10921350  0.88183150  0.68427950  1
  O  O42  1  0.89078650  0.11816850  0.31572050  1
  O  O43  1  0.89078650  0.88183150  0.81572050  1
  O  O44  1  0.66922400  0.23786000  0.27203550  1
  O  O45  1  0.66922400  0.76214000  0.77203550  1
  O  O46  1  0.33077600  0.23786000  0.22796450  1
  O  O47  1  0.33077600  0.76214000  0.72796450  1
  O  O48  1  0.61456500  0.90344300  0.16223650  1
  O  O49  1  0.61456500  0.09655700  0.66223650  1
  O  O50  1  0.38543500  0.90344300  0.33776350  1
  O  O51  1  0.38543500  0.09655700  0.83776350  1
  O  O52  1  0.60921350  0.61816850  0.18427950  1
  O  O53  1  0.60921350  0.38183150  0.68427950  1
  O  O54  1  0.39078650  0.61816850  0.31572050  1
  O  O55  1  0.39078650  0.38183150  0.81572050  1
