# generated using pymatgen
data_Li4Mn2Cr3Sn3O16
_symmetry_space_group_name_H-M   'P 1'
_cell_length_a   10.50775198
_cell_length_b   6.14059747
_cell_length_c   9.65565550
_cell_angle_alpha   90.00000000
_cell_angle_beta   90.83041305
_cell_angle_gamma   90.00000000
_symmetry_Int_Tables_number   1
_chemical_formula_structural   Li4Mn2Cr3Sn3O16
_chemical_formula_sum   'Li8 Mn4 Cr6 Sn6 O32'
_cell_volume   622.95487623
_cell_formula_units_Z   2
loop_
 _symmetry_equiv_pos_site_id
 _symmetry_equiv_pos_as_xyz
  1  'x, y, z'
loop_
 _atom_site_type_symbol
 _atom_site_label
 _atom_site_symmetry_multiplicity
 _atom_site_fract_x
 _atom_site_fract_y
 _atom_site_fract_z
 _atom_site_occupancy
  Li  Li0  1  0.17223800  0.50000000  0.89284700  1
  Li  Li1  1  0.48564150  0.50000000  0.99149800  1
  Li  Li2  1  0.48549650  0.50000000  0.49928200  1
  Li  Li3  1  0.83721750  0.50000000  0.40005600  1
  Li  Li4  1  0.67223800  0.00000000  0.89284700  1
  Li  Li5  1  0.98564150  0.00000000  0.99149800  1
  Li  Li6  1  0.98549650  0.00000000  0.49928200  1
  Li  Li7  1  0.33721750  0.00000000  0.40005600  1
  Mn  Mn8  1  0.17122200  0.50000000  0.49405700  1
  Mn  Mn9  1  0.83989500  0.50000000  0.97956300  1
  Mn  Mn10  1  0.67122200  0.00000000  0.49405700  1
  Mn  Mn11  1  0.33989500  0.00000000  0.97956300  1
  Cr  Cr12  1  0.32998950  0.50000000  0.21347900  1
  Cr  Cr13  1  0.91470200  0.25432300  0.71422000  1
  Cr  Cr14  1  0.91470200  0.74567700  0.71422000  1
  Cr  Cr15  1  0.82998950  0.00000000  0.21347900  1
  Cr  Cr16  1  0.41470200  0.75432300  0.71422000  1
  Cr  Cr17  1  0.41470200  0.24567700  0.71422000  1
  Sn  Sn18  1  0.08759900  0.25263700  0.21306700  1
  Sn  Sn19  1  0.08759900  0.74736300  0.21306700  1
  Sn  Sn20  1  0.66650600  0.50000000  0.71075600  1
  Sn  Sn21  1  0.58759900  0.75263700  0.21306700  1
  Sn  Sn22  1  0.58759900  0.24736300  0.21306700  1
  Sn  Sn23  1  0.16650600  0.00000000  0.71075600  1
  O  O24  1  0.07495050  0.24261250  0.59908200  1
  O  O25  1  0.02521100  0.50000000  0.35011400  1
  O  O26  1  0.16957050  0.50000000  0.09776400  1
  O  O27  1  0.49792200  0.50000000  0.31282700  1
  O  O28  1  0.49491850  0.50000000  0.81001600  1
  O  O29  1  0.07495050  0.75738750  0.59908200  1
  O  O30  1  0.24918150  0.27948550  0.33742100  1
  O  O31  1  0.24918150  0.72051450  0.33742100  1
  O  O32  1  0.66330500  0.50000000  0.08981300  1
  O  O33  1  0.32979050  0.50000000  0.60485800  1
  O  O34  1  0.76614250  0.28382350  0.84844400  1
  O  O35  1  0.76614250  0.71617650  0.84844400  1
  O  O36  1  0.83564000  0.50000000  0.60592600  1
  O  O37  1  0.91710850  0.24830450  0.09546500  1
  O  O38  1  0.97944350  0.50000000  0.84120800  1
  O  O39  1  0.91710850  0.75169550  0.09546500  1
  O  O40  1  0.57495050  0.74261250  0.59908200  1
  O  O41  1  0.52521100  0.00000000  0.35011400  1
  O  O42  1  0.66957050  0.00000000  0.09776400  1
  O  O43  1  0.99792200  0.00000000  0.31282700  1
  O  O44  1  0.99491850  0.00000000  0.81001600  1
  O  O45  1  0.57495050  0.25738750  0.59908200  1
  O  O46  1  0.74918150  0.77948550  0.33742100  1
  O  O47  1  0.74918150  0.22051450  0.33742100  1
  O  O48  1  0.16330500  0.00000000  0.08981300  1
  O  O49  1  0.82979050  0.00000000  0.60485800  1
  O  O50  1  0.26614250  0.78382350  0.84844400  1
  O  O51  1  0.26614250  0.21617650  0.84844400  1
  O  O52  1  0.33564000  0.00000000  0.60592600  1
  O  O53  1  0.41710850  0.74830450  0.09546500  1
  O  O54  1  0.47944350  0.00000000  0.84120800  1
  O  O55  1  0.41710850  0.25169550  0.09546500  1
