# generated using pymatgen
data_BaY3F11
_symmetry_space_group_name_H-M   'P 1'
_cell_length_a   4.42929900
_cell_length_b   8.68051700
_cell_length_c   16.26670500
_cell_angle_alpha   90.00000000
_cell_angle_beta   90.00000000
_cell_angle_gamma   90.00000000
_symmetry_Int_Tables_number   1
_chemical_formula_structural   BaY3F11
_chemical_formula_sum   'Ba2 Y6 F22'
_cell_volume   625.43211955
_cell_formula_units_Z   2
loop_
 _symmetry_equiv_pos_site_id
 _symmetry_equiv_pos_as_xyz
  1  'x, y, z'
loop_
 _atom_site_type_symbol
 _atom_site_label
 _atom_site_symmetry_multiplicity
 _atom_site_fract_x
 _atom_site_fract_y
 _atom_site_fract_z
 _atom_site_occupancy
  Ba  Ba0  1  0.00000000  0.75000000  0.01478400  1
  Ba  Ba1  1  0.00000000  0.25000000  0.98521600  1
  Y  Y2  1  0.00000000  0.50110300  0.23551600  1
  Y  Y3  1  0.00000000  0.99889700  0.23551600  1
  Y  Y4  1  0.00000000  0.00000000  0.50000000  1
  Y  Y5  1  0.00000000  0.50000000  0.50000000  1
  Y  Y6  1  0.00000000  0.00110300  0.76448400  1
  Y  Y7  1  0.00000000  0.49889700  0.76448400  1
  F  F8  1  0.50000000  0.75000000  0.07484600  1
  F  F9  1  0.00000000  0.03345800  0.10192100  1
  F  F10  1  0.00000000  0.46654200  0.10192100  1
  F  F11  1  0.00000000  0.75000000  0.20747100  1
  F  F12  1  0.50000000  0.49333100  0.24060300  1
  F  F13  1  0.50000000  0.00666900  0.24060300  1
  F  F14  1  0.00000000  0.25000000  0.25367400  1
  F  F15  1  0.00000000  0.94892800  0.36800400  1
  F  F16  1  0.00000000  0.55107200  0.36800400  1
  F  F17  1  0.00000000  0.25000000  0.47355100  1
  F  F18  1  0.50000000  0.00000000  0.50000000  1
  F  F19  1  0.50000000  0.50000000  0.50000000  1
  F  F20  1  0.00000000  0.75000000  0.52644900  1
  F  F21  1  0.00000000  0.05107200  0.63199600  1
  F  F22  1  0.00000000  0.44892800  0.63199600  1
  F  F23  1  0.00000000  0.75000000  0.74632600  1
  F  F24  1  0.50000000  0.99333100  0.75939700  1
  F  F25  1  0.50000000  0.50666900  0.75939700  1
  F  F26  1  0.00000000  0.25000000  0.79252900  1
  F  F27  1  0.00000000  0.96654200  0.89807900  1
  F  F28  1  0.00000000  0.53345800  0.89807900  1
  F  F29  1  0.50000000  0.25000000  0.92515400  1
