# generated using pymatgen
data_Sm2TeO6
_symmetry_space_group_name_H-M   'P 1'
_cell_length_a   9.28465107
_cell_length_b   9.28465107
_cell_length_c   5.36946900
_cell_angle_alpha   90.00000000
_cell_angle_beta   90.00000000
_cell_angle_gamma   120.00000000
_symmetry_Int_Tables_number   1
_chemical_formula_structural   Sm2TeO6
_chemical_formula_sum   'Sm6 Te3 O18'
_cell_volume   400.86039031
_cell_formula_units_Z   3
loop_
 _symmetry_equiv_pos_site_id
 _symmetry_equiv_pos_as_xyz
  1  'x, y, z'
loop_
 _atom_site_type_symbol
 _atom_site_label
 _atom_site_symmetry_multiplicity
 _atom_site_fract_x
 _atom_site_fract_y
 _atom_site_fract_z
 _atom_site_occupancy
  Sm  Sm0  1  0.00000000  0.61394250  0.50000000  1
  Sm  Sm1  1  0.00000000  0.27637450  0.00000000  1
  Sm  Sm2  1  0.38605750  0.38605750  0.50000000  1
  Sm  Sm3  1  0.27637450  0.00000000  0.00000000  1
  Sm  Sm4  1  0.72362550  0.72362550  0.00000000  1
  Sm  Sm5  1  0.61394250  0.00000000  0.50000000  1
  Te  Te6  1  0.33333333  0.66666667  0.99890700  1
  Te  Te7  1  0.00000000  0.00000000  0.50000000  1
  Te  Te8  1  0.66666667  0.33333333  0.00109300  1
  O  O9  1  0.07187633  0.87612467  0.29201900  1
  O  O10  1  0.22701033  0.75942067  0.78866400  1
  O  O11  1  0.13691833  0.54300867  0.20881200  1
  O  O12  1  0.40609033  0.86308167  0.20881200  1
  O  O13  1  0.24057933  0.46758967  0.78866400  1
  O  O14  1  0.12387533  0.19575167  0.29201900  1
  O  O15  1  0.19575167  0.12387533  0.70798100  1
  O  O16  1  0.53241033  0.77298967  0.78866400  1
  O  O17  1  0.45699133  0.59390967  0.20881200  1
  O  O18  1  0.80424833  0.92812367  0.29201900  1
  O  O19  1  0.46758967  0.24057933  0.21133600  1
  O  O20  1  0.59390967  0.45699133  0.79118800  1
  O  O21  1  0.54300867  0.13691833  0.79118800  1
  O  O22  1  0.77298967  0.53241033  0.21133600  1
  O  O23  1  0.92812367  0.80424833  0.70798100  1
  O  O24  1  0.75942067  0.22701033  0.21133600  1
  O  O25  1  0.86308167  0.40609033  0.79118800  1
  O  O26  1  0.87612467  0.07187633  0.70798100  1
