# generated using pymatgen
data_Li2Bi2(SO4)3
_symmetry_space_group_name_H-M   'P 1'
_cell_length_a   14.69516600
_cell_length_b   9.97889600
_cell_length_c   8.99917946
_cell_angle_alpha   90.00000000
_cell_angle_beta   119.42463824
_cell_angle_gamma   90.00000000
_symmetry_Int_Tables_number   1
_chemical_formula_structural   Li2Bi2(SO4)3
_chemical_formula_sum   'Li8 Bi8 S12 O48'
_cell_volume   1149.42164959
_cell_formula_units_Z   4
loop_
 _symmetry_equiv_pos_site_id
 _symmetry_equiv_pos_as_xyz
  1  'x, y, z'
loop_
 _atom_site_type_symbol
 _atom_site_label
 _atom_site_symmetry_multiplicity
 _atom_site_fract_x
 _atom_site_fract_y
 _atom_site_fract_z
 _atom_site_occupancy
  Li  Li0  1  0.27182600  0.62137400  0.94386300  1
  Li  Li1  1  0.27182600  0.37862600  0.44386300  1
  Li  Li2  1  0.72817400  0.62137400  0.55613700  1
  Li  Li3  1  0.72817400  0.37862600  0.05613700  1
  Li  Li4  1  0.77182600  0.12137400  0.94386300  1
  Li  Li5  1  0.77182600  0.87862600  0.44386300  1
  Li  Li6  1  0.22817400  0.12137400  0.55613700  1
  Li  Li7  1  0.22817400  0.87862600  0.05613700  1
  Bi  Bi8  1  0.08582050  0.76041250  0.44250400  1
  Bi  Bi9  1  0.08582050  0.23958750  0.94250400  1
  Bi  Bi10  1  0.91417950  0.76041250  0.05749600  1
  Bi  Bi11  1  0.91417950  0.23958750  0.55749600  1
  Bi  Bi12  1  0.58582050  0.26041250  0.44250400  1
  Bi  Bi13  1  0.58582050  0.73958750  0.94250400  1
  Bi  Bi14  1  0.41417950  0.26041250  0.05749600  1
  Bi  Bi15  1  0.41417950  0.73958750  0.55749600  1
  S  S16  1  0.16186800  0.39891100  0.67695100  1
  S  S17  1  0.16186800  0.60108900  0.17695100  1
  S  S18  1  0.00000000  0.91426800  0.75000000  1
  S  S19  1  0.00000000  0.08573200  0.25000000  1
  S  S20  1  0.83813200  0.39891100  0.82304900  1
  S  S21  1  0.83813200  0.60108900  0.32304900  1
  S  S22  1  0.66186800  0.89891100  0.67695100  1
  S  S23  1  0.66186800  0.10108900  0.17695100  1
  S  S24  1  0.50000000  0.41426800  0.75000000  1
  S  S25  1  0.50000000  0.58573200  0.25000000  1
  S  S26  1  0.33813200  0.89891100  0.82304900  1
  S  S27  1  0.33813200  0.10108900  0.32304900  1
  O  O28  1  0.41321050  0.50118450  0.61555100  1
  O  O29  1  0.41321050  0.49881550  0.11555100  1
  O  O30  1  0.20715850  0.32066950  0.58784000  1
  O  O31  1  0.19950300  0.53877600  0.70423000  1
  O  O32  1  0.19761500  0.33749300  0.85299000  1
  O  O33  1  0.20715850  0.67933050  0.08784000  1
  O  O34  1  0.04491250  0.83124450  0.66759200  1
  O  O35  1  0.04612850  0.39190850  0.57950600  1
  O  O36  1  0.19950300  0.46122400  0.20423000  1
  O  O37  1  0.19761500  0.66250700  0.35299000  1
  O  O38  1  0.04491250  0.16875550  0.16759200  1
  O  O39  1  0.95387150  0.39190850  0.92049400  1
  O  O40  1  0.04612850  0.60809150  0.07950600  1
  O  O41  1  0.95508750  0.83124450  0.83240800  1
  O  O42  1  0.80238500  0.33749300  0.64701000  1
  O  O43  1  0.80049700  0.53877600  0.79577000  1
  O  O44  1  0.95387150  0.60809150  0.42049400  1
  O  O45  1  0.95508750  0.16875550  0.33240800  1
  O  O46  1  0.79284150  0.32066950  0.91216000  1
  O  O47  1  0.80238500  0.66250700  0.14701000  1
  O  O48  1  0.80049700  0.46122400  0.29577000  1
  O  O49  1  0.79284150  0.67933050  0.41216000  1
  O  O50  1  0.58678950  0.50118450  0.88444900  1
  O  O51  1  0.58678950  0.49881550  0.38444900  1
  O  O52  1  0.91321050  0.00118450  0.61555100  1
  O  O53  1  0.91321050  0.99881550  0.11555100  1
  O  O54  1  0.70715850  0.82066950  0.58784000  1
  O  O55  1  0.69950300  0.03877600  0.70423000  1
  O  O56  1  0.69761500  0.83749300  0.85299000  1
  O  O57  1  0.70715850  0.17933050  0.08784000  1
  O  O58  1  0.54491250  0.33124450  0.66759200  1
  O  O59  1  0.54612850  0.89190850  0.57950600  1
  O  O60  1  0.69950300  0.96122400  0.20423000  1
  O  O61  1  0.69761500  0.16250700  0.35299000  1
  O  O62  1  0.54491250  0.66875550  0.16759200  1
  O  O63  1  0.45387150  0.89190850  0.92049400  1
  O  O64  1  0.54612850  0.10809150  0.07950600  1
  O  O65  1  0.45508750  0.33124450  0.83240800  1
  O  O66  1  0.30238500  0.83749300  0.64701000  1
  O  O67  1  0.30049700  0.03877600  0.79577000  1
  O  O68  1  0.45387150  0.10809150  0.42049400  1
  O  O69  1  0.45508750  0.66875550  0.33240800  1
  O  O70  1  0.29284150  0.82066950  0.91216000  1
  O  O71  1  0.30238500  0.16250700  0.14701000  1
  O  O72  1  0.30049700  0.96122400  0.29577000  1
  O  O73  1  0.29284150  0.17933050  0.41216000  1
  O  O74  1  0.08678950  0.00118450  0.88444900  1
  O  O75  1  0.08678950  0.99881550  0.38444900  1
