# generated using pymatgen
data_Ta2Pb2O7
_symmetry_space_group_name_H-M   'P 1'
_cell_length_a   3.98419600
_cell_length_b   27.61781800
_cell_length_c   5.90993100
_cell_angle_alpha   90.00000000
_cell_angle_beta   90.00000000
_cell_angle_gamma   90.00000000
_symmetry_Int_Tables_number   1
_chemical_formula_structural   Ta2Pb2O7
_chemical_formula_sum   'Ta8 Pb8 O28'
_cell_volume   650.29807562
_cell_formula_units_Z   4
loop_
 _symmetry_equiv_pos_site_id
 _symmetry_equiv_pos_as_xyz
  1  'x, y, z'
loop_
 _atom_site_type_symbol
 _atom_site_label
 _atom_site_symmetry_multiplicity
 _atom_site_fract_x
 _atom_site_fract_y
 _atom_site_fract_z
 _atom_site_occupancy
  Ta  Ta0  1  0.50000000  0.65887200  0.74996200  1
  Ta  Ta1  1  0.50000000  0.55654000  0.25139000  1
  Ta  Ta2  1  0.00000000  0.84112800  0.24996200  1
  Ta  Ta3  1  0.00000000  0.94346000  0.75139000  1
  Ta  Ta4  1  0.00000000  0.15887200  0.74996200  1
  Ta  Ta5  1  0.00000000  0.05654000  0.25139000  1
  Ta  Ta6  1  0.50000000  0.34112800  0.24996200  1
  Ta  Ta7  1  0.50000000  0.44346000  0.75139000  1
  Pb  Pb8  1  0.50000000  0.78484800  0.76141400  1
  Pb  Pb9  1  0.50000000  0.94654800  0.27722200  1
  Pb  Pb10  1  0.00000000  0.71515200  0.26141400  1
  Pb  Pb11  1  0.00000000  0.55345200  0.77722200  1
  Pb  Pb12  1  0.00000000  0.28484800  0.76141400  1
  Pb  Pb13  1  0.00000000  0.44654800  0.27722200  1
  Pb  Pb14  1  0.50000000  0.21515200  0.26141400  1
  Pb  Pb15  1  0.50000000  0.05345200  0.77722200  1
  O  O16  1  0.50000000  0.59786100  0.96583400  1
  O  O17  1  0.50000000  0.50137500  0.46017200  1
  O  O18  1  0.50000000  0.70482300  0.98522600  1
  O  O19  1  0.50000000  0.60403800  0.47303400  1
  O  O20  1  0.50000000  0.70969700  0.52734800  1
  O  O21  1  0.50000000  0.85127000  0.23714600  1
  O  O22  1  0.50000000  0.95014500  0.70759100  1
  O  O23  1  0.00000000  0.79030300  0.02734800  1
  O  O24  1  0.00000000  0.54985500  0.20759100  1
  O  O25  1  0.00000000  0.64873000  0.73714600  1
  O  O26  1  0.00000000  0.90213900  0.46583400  1
  O  O27  1  0.00000000  0.89596200  0.97303400  1
  O  O28  1  0.00000000  0.99862500  0.96017200  1
  O  O29  1  0.00000000  0.79517700  0.48522600  1
  O  O30  1  0.00000000  0.09786100  0.96583400  1
  O  O31  1  0.00000000  0.00137500  0.46017200  1
  O  O32  1  0.00000000  0.20482300  0.98522600  1
  O  O33  1  0.00000000  0.10403800  0.47303400  1
  O  O34  1  0.00000000  0.20969700  0.52734800  1
  O  O35  1  0.00000000  0.35127000  0.23714600  1
  O  O36  1  0.00000000  0.45014500  0.70759100  1
  O  O37  1  0.50000000  0.29030300  0.02734800  1
  O  O38  1  0.50000000  0.04985500  0.20759100  1
  O  O39  1  0.50000000  0.14873000  0.73714600  1
  O  O40  1  0.50000000  0.40213900  0.46583400  1
  O  O41  1  0.50000000  0.39596200  0.97303400  1
  O  O42  1  0.50000000  0.49862500  0.96017200  1
  O  O43  1  0.50000000  0.29517700  0.48522600  1
