# generated using pymatgen
data_Li2Ti3CoO8
_symmetry_space_group_name_H-M   'P 1'
_cell_length_a   5.94345511
_cell_length_b   5.94345511
_cell_length_c   9.76246622
_cell_angle_alpha   90.00000000
_cell_angle_beta   90.00000000
_cell_angle_gamma   120.00000000
_symmetry_Int_Tables_number   1
_chemical_formula_structural   Li2Ti3CoO8
_chemical_formula_sum   'Li4 Ti6 Co2 O16'
_cell_volume   298.65387156
_cell_formula_units_Z   2
loop_
 _symmetry_equiv_pos_site_id
 _symmetry_equiv_pos_as_xyz
  1  'x, y, z'
loop_
 _atom_site_type_symbol
 _atom_site_label
 _atom_site_symmetry_multiplicity
 _atom_site_fract_x
 _atom_site_fract_y
 _atom_site_fract_z
 _atom_site_occupancy
  Li  Li0  1  0.33333333  0.66666667  0.88959700  1
  Li  Li1  1  0.00000000  0.00000000  0.99860800  1
  Li  Li2  1  0.00000000  0.00000000  0.49860800  1
  Li  Li3  1  0.66666667  0.33333333  0.38959700  1
  Ti  Ti4  1  0.17040800  0.82959200  0.21565200  1
  Ti  Ti5  1  0.17040800  0.34081600  0.21565200  1
  Ti  Ti6  1  0.65918400  0.82959200  0.21565200  1
  Ti  Ti7  1  0.34081600  0.17040800  0.71565200  1
  Ti  Ti8  1  0.82959200  0.65918400  0.71565200  1
  Ti  Ti9  1  0.82959200  0.17040800  0.71565200  1
  Co  Co10  1  0.33333333  0.66666667  0.49220100  1
  Co  Co11  1  0.66666667  0.33333333  0.99220100  1
  O  O12  1  0.15976000  0.84024000  0.60709100  1
  O  O13  1  0.03722500  0.51861250  0.32853600  1
  O  O14  1  0.33333333  0.66666667  0.10473800  1
  O  O15  1  0.00000000  0.00000000  0.31492900  1
  O  O16  1  0.00000000  0.00000000  0.81492900  1
  O  O17  1  0.15976000  0.31952000  0.60709100  1
  O  O18  1  0.48138750  0.96277500  0.32853600  1
  O  O19  1  0.48138750  0.51861250  0.32853600  1
  O  O20  1  0.31952000  0.15976000  0.10709100  1
  O  O21  1  0.68048000  0.84024000  0.60709100  1
  O  O22  1  0.51861250  0.48138750  0.82853600  1
  O  O23  1  0.51861250  0.03722500  0.82853600  1
  O  O24  1  0.66666667  0.33333333  0.60473800  1
  O  O25  1  0.84024000  0.68048000  0.10709100  1
  O  O26  1  0.96277500  0.48138750  0.82853600  1
  O  O27  1  0.84024000  0.15976000  0.10709100  1
