# generated using pymatgen
data_Cr2Fe3Cu(PO4)6
_symmetry_space_group_name_H-M   'P 1'
_cell_length_a   8.62107835
_cell_length_b   8.62107835
_cell_length_c   20.25677814
_cell_angle_alpha   90.00000000
_cell_angle_beta   90.00000000
_cell_angle_gamma   120.00000000
_symmetry_Int_Tables_number   1
_chemical_formula_structural   Cr2Fe3Cu(PO4)6
_chemical_formula_sum   'Cr6 Fe9 Cu3 P18 O72'
_cell_volume   1303.83966080
_cell_formula_units_Z   3
loop_
 _symmetry_equiv_pos_site_id
 _symmetry_equiv_pos_as_xyz
  1  'x, y, z'
loop_
 _atom_site_type_symbol
 _atom_site_label
 _atom_site_symmetry_multiplicity
 _atom_site_fract_x
 _atom_site_fract_y
 _atom_site_fract_z
 _atom_site_occupancy
  Cr  Cr0  1  0.33333333  0.66666667  0.66749367  1
  Cr  Cr1  1  0.33333333  0.66666667  0.16719667  1
  Cr  Cr2  1  0.00000000  0.00000000  0.00082700  1
  Cr  Cr3  1  0.00000000  0.00000000  0.50053000  1
  Cr  Cr4  1  0.66666667  0.33333333  0.33416033  1
  Cr  Cr5  1  0.66666667  0.33333333  0.83386333  1
  Fe  Fe6  1  0.33333333  0.66666667  0.52151467  1
  Fe  Fe7  1  0.33333333  0.66666667  0.31321367  1
  Fe  Fe8  1  0.33333333  0.66666667  0.02091367  1
  Fe  Fe9  1  0.00000000  0.00000000  0.85484800  1
  Fe  Fe10  1  0.00000000  0.00000000  0.64654700  1
  Fe  Fe11  1  0.00000000  0.00000000  0.35424700  1
  Fe  Fe12  1  0.66666667  0.33333333  0.18818133  1
  Fe  Fe13  1  0.66666667  0.33333333  0.97988033  1
  Fe  Fe14  1  0.66666667  0.33333333  0.68758033  1
  Cu  Cu15  1  0.33333333  0.66666667  0.81255367  1
  Cu  Cu16  1  0.00000000  0.00000000  0.14588700  1
  Cu  Cu17  1  0.66666667  0.33333333  0.47922033  1
  P  P18  1  0.70212933  0.70275767  0.24942867  1
  P  P19  1  0.29724233  0.99937167  0.24942867  1
  P  P20  1  0.00062833  0.29787067  0.24942867  1
  P  P21  1  0.66715067  0.03470833  0.08416633  1
  P  P22  1  0.36755767  0.33284933  0.08416633  1
  P  P23  1  0.96529167  0.63244233  0.08416633  1
  P  P24  1  0.36879600  0.03609100  0.58276200  1
  P  P25  1  0.96390900  0.33270500  0.58276200  1
  P  P26  1  0.66729500  0.63120400  0.58276200  1
  P  P27  1  0.33381733  0.36804167  0.41749967  1
  P  P28  1  0.03422433  0.66618267  0.41749967  1
  P  P29  1  0.63195833  0.96577567  0.41749967  1
  P  P30  1  0.03546267  0.36942433  0.91609533  1
  P  P31  1  0.63057567  0.66603833  0.91609533  1
  P  P32  1  0.33396167  0.96453733  0.91609533  1
  P  P33  1  0.00048400  0.70137500  0.75083300  1
  P  P34  1  0.70089100  0.99951600  0.75083300  1
  P  P35  1  0.29862500  0.29910900  0.75083300  1
  O  O36  1  0.53946933  0.86013967  0.35537067  1
  O  O37  1  0.32067033  0.46053067  0.35537067  1
  O  O38  1  0.67792733  0.51115067  0.26176667  1
  O  O39  1  0.13986033  0.67932967  0.35537067  1
  O  O40  1  0.79751567  0.79269933  0.18546433  1
  O  O41  1  0.50728133  0.67244167  0.23938367  1
  O  O42  1  0.48884933  0.16677667  0.26176667  1
  O  O43  1  0.32755833  0.83483967  0.23938367  1
  O  O44  1  0.67958767  0.13977633  0.14601333  1
  O  O45  1  0.16516033  0.49271867  0.23938367  1
  O  O46  1  0.83417433  0.01189967  0.07127567  1
  O  O47  1  0.46018867  0.32041233  0.14601333  1
  O  O48  1  0.20730067  0.00481633  0.18546433  1
  O  O49  1  0.83322333  0.32207267  0.26176667  1
  O  O50  1  0.50100067  0.84240133  0.09513933  1
  O  O51  1  0.99518367  0.20248433  0.18546433  1
  O  O52  1  0.34140067  0.49899933  0.09513933  1
  O  O53  1  0.17772533  0.16582567  0.07127567  1
  O  O54  1  0.15759867  0.65859933  0.09513933  1
  O  O55  1  0.86022367  0.53981133  0.14601333  1
  O  O56  1  0.52403367  0.65244533  0.97769533  1
  O  O57  1  0.98810033  0.82227467  0.07127567  1
  O  O58  1  0.34755467  0.87158833  0.97769533  1
  O  O59  1  0.12841167  0.47596633  0.97769533  1
  O  O60  1  0.20613600  0.19347300  0.68870400  1
  O  O61  1  0.98733700  0.79386400  0.68870400  1
  O  O62  1  0.34459400  0.84448400  0.59510000  1
  O  O63  1  0.80652700  0.01266300  0.68870400  1
  O  O64  1  0.46418233  0.12603267  0.51879767  1
  O  O65  1  0.17394800  0.00577500  0.57271700  1
  O  O66  1  0.15551600  0.50011000  0.59510000  1
  O  O67  1  0.99422500  0.16817300  0.57271700  1
  O  O68  1  0.34625433  0.47310967  0.47934667  1
  O  O69  1  0.83182700  0.82605200  0.57271700  1
  O  O70  1  0.50084100  0.34523300  0.40460900  1
  O  O71  1  0.12685533  0.65374567  0.47934667  1
  O  O72  1  0.87396733  0.33814967  0.51879767  1
  O  O73  1  0.49989000  0.65540600  0.59510000  1
  O  O74  1  0.16766733  0.17573467  0.42847267  1
  O  O75  1  0.66185033  0.53581767  0.51879767  1
  O  O76  1  0.00806733  0.83233267  0.42847267  1
  O  O77  1  0.84439200  0.49915900  0.40460900  1
  O  O78  1  0.82426533  0.99193267  0.42847267  1
  O  O79  1  0.52689033  0.87314467  0.47934667  1
  O  O80  1  0.19070033  0.98577867  0.31102867  1
  O  O81  1  0.65476700  0.15560800  0.40460900  1
  O  O82  1  0.01422133  0.20492167  0.31102867  1
  O  O83  1  0.79507833  0.80929967  0.31102867  1
  O  O84  1  0.87280267  0.52680633  0.02203733  1
  O  O85  1  0.65400367  0.12719733  0.02203733  1
  O  O86  1  0.01126067  0.17781733  0.92843333  1
  O  O87  1  0.47319367  0.34599633  0.02203733  1
  O  O88  1  0.13084900  0.45936600  0.85213100  1
  O  O89  1  0.84061467  0.33910833  0.90605033  1
  O  O90  1  0.82218267  0.83344333  0.92843333  1
  O  O91  1  0.66089167  0.50150633  0.90605033  1
  O  O92  1  0.01292100  0.80644300  0.81268000  1
  O  O93  1  0.49849367  0.15938533  0.90605033  1
  O  O94  1  0.16750767  0.67856633  0.73794233  1
  O  O95  1  0.79352200  0.98707900  0.81268000  1
  O  O96  1  0.54063400  0.67148300  0.85213100  1
  O  O97  1  0.16655667  0.98873933  0.92843333  1
  O  O98  1  0.83433400  0.50906800  0.76180600  1
  O  O99  1  0.32851700  0.86915100  0.85213100  1
  O  O100  1  0.67473400  0.16566600  0.76180600  1
  O  O101  1  0.51105867  0.83249233  0.73794233  1
  O  O102  1  0.49093200  0.32526600  0.76180600  1
  O  O103  1  0.19355700  0.20647800  0.81268000  1
  O  O104  1  0.85736700  0.31911200  0.64436200  1
  O  O105  1  0.32143367  0.48894133  0.73794233  1
  O  O106  1  0.68088800  0.53825500  0.64436200  1
  O  O107  1  0.46174500  0.14263300  0.64436200  1
