# generated using pymatgen
data_CrFe2(PO4)3
_symmetry_space_group_name_H-M   'P 1'
_cell_length_a   8.61430433
_cell_length_b   8.61430433
_cell_length_c   20.35137603
_cell_angle_alpha   90.00000000
_cell_angle_beta   90.00000000
_cell_angle_gamma   120.00000000
_symmetry_Int_Tables_number   1
_chemical_formula_structural   CrFe2(PO4)3
_chemical_formula_sum   'Cr6 Fe12 P18 O72'
_cell_volume   1307.87076381
_cell_formula_units_Z   6
loop_
 _symmetry_equiv_pos_site_id
 _symmetry_equiv_pos_as_xyz
  1  'x, y, z'
loop_
 _atom_site_type_symbol
 _atom_site_label
 _atom_site_symmetry_multiplicity
 _atom_site_fract_x
 _atom_site_fract_y
 _atom_site_fract_z
 _atom_site_occupancy
  Cr  Cr0  1  0.00000000  0.00000000  0.00000000  1
  Cr  Cr1  1  0.33333333  0.66666667  0.16666667  1
  Cr  Cr2  1  0.66666667  0.33333333  0.33333333  1
  Cr  Cr3  1  0.00000000  0.00000000  0.50000000  1
  Cr  Cr4  1  0.33333333  0.66666667  0.66666667  1
  Cr  Cr5  1  0.66666667  0.33333333  0.83333333  1
  Fe  Fe6  1  0.33333333  0.66666667  0.81277667  1
  Fe  Fe7  1  0.33333333  0.66666667  0.02055667  1
  Fe  Fe8  1  0.33333333  0.66666667  0.31277667  1
  Fe  Fe9  1  0.33333333  0.66666667  0.52055667  1
  Fe  Fe10  1  0.00000000  0.00000000  0.14611000  1
  Fe  Fe11  1  1.00000000  0.00000000  0.35389000  1
  Fe  Fe12  1  0.00000000  0.00000000  0.64611000  1
  Fe  Fe13  1  0.00000000  0.00000000  0.85389000  1
  Fe  Fe14  1  0.66666667  0.33333333  0.47944333  1
  Fe  Fe15  1  0.66666667  0.33333333  0.68722333  1
  Fe  Fe16  1  0.66666667  0.33333333  0.97944333  1
  Fe  Fe17  1  0.66666667  0.33333333  0.18722333  1
  P  P18  1  0.66666667  0.63173333  0.08333333  1
  P  P19  1  0.96506667  0.33333333  0.08333333  1
  P  P20  1  0.36826667  0.03493333  0.08333333  1
  P  P21  1  0.29840000  0.29840000  0.25000000  1
  P  P22  1  0.70160000  0.00000000  0.25000000  1
  P  P23  1  0.00000000  0.70160000  0.25000000  1
  P  P24  1  0.33333333  0.96506667  0.41666667  1
  P  P25  1  0.63173333  0.66666667  0.41666667  1
  P  P26  1  0.03493333  0.36826667  0.41666667  1
  P  P27  1  0.96506667  0.63173333  0.58333333  1
  P  P28  1  0.36826667  0.33333333  0.58333333  1
  P  P29  1  0.66666667  0.03493333  0.58333333  1
  P  P30  1  0.00000000  0.29840000  0.75000000  1
  P  P31  1  0.29840000  0.00000000  0.75000000  1
  P  P32  1  0.70160000  0.70160000  0.75000000  1
  P  P33  1  0.63173333  0.96506667  0.91666667  1
  P  P34  1  0.03493333  0.66666667  0.91666667  1
  P  P35  1  0.33333333  0.36826667  0.91666667  1
  O  O36  1  0.34630533  0.47341667  0.97836967  1
  O  O37  1  0.52658333  0.87288867  0.97836967  1
  O  O38  1  0.83307933  0.82398967  0.07209267  1
  O  O39  1  0.12711133  0.65369467  0.97836967  1
  O  O40  1  0.67963867  0.53955533  0.14503633  1
  O  O41  1  0.50025400  0.65757700  0.09457400  1
  O  O42  1  0.99091033  0.16692067  0.07209267  1
  O  O43  1  0.15732300  0.49974600  0.09457400  1
  O  O44  1  0.20622200  0.19325000  0.18829700  1
  O  O45  1  0.34242300  0.84267700  0.09457400  1
  O  O46  1  0.49065633  0.32424367  0.26124067  1
  O  O47  1  0.80675000  0.01297200  0.18829700  1
  O  O48  1  0.85991667  0.32036133  0.14503633  1
  O  O49  1  0.17601033  0.00908967  0.07209267  1
  O  O50  1  0.32424367  0.49065633  0.23875933  1
  O  O51  1  0.46044467  0.14008333  0.14503633  1
  O  O52  1  0.50934367  0.83358733  0.23875933  1
  O  O53  1  0.67575633  0.16641267  0.26124067  1
  O  O54  1  0.16641267  0.67575633  0.23875933  1
  O  O55  1  0.98702800  0.79377800  0.18829700  1
  O  O56  1  0.53955533  0.67963867  0.35496367  1
  O  O57  1  0.83358733  0.50934367  0.26124067  1
  O  O58  1  0.14008333  0.46044467  0.35496367  1
  O  O59  1  0.32036133  0.85991667  0.35496367  1
  O  O60  1  0.01297200  0.80675000  0.31170300  1
  O  O61  1  0.19325000  0.20622200  0.31170300  1
  O  O62  1  0.49974600  0.15732300  0.40542600  1
  O  O63  1  0.79377800  0.98702800  0.31170300  1
  O  O64  1  0.34630533  0.87288867  0.47836967  1
  O  O65  1  0.16692067  0.99091033  0.42790733  1
  O  O66  1  0.65757700  0.50025400  0.40542600  1
  O  O67  1  0.82398967  0.83307933  0.42790733  1
  O  O68  1  0.87288867  0.52658333  0.52163033  1
  O  O69  1  0.00908967  0.17601033  0.42790733  1
  O  O70  1  0.15732300  0.65757700  0.59457400  1
  O  O71  1  0.47341667  0.34630533  0.52163033  1
  O  O72  1  0.52658333  0.65369467  0.47836967  1
  O  O73  1  0.84267700  0.34242300  0.40542600  1
  O  O74  1  0.99091033  0.82398967  0.57209267  1
  O  O75  1  0.12711133  0.47341667  0.47836967  1
  O  O76  1  0.17601033  0.16692067  0.57209267  1
  O  O77  1  0.34242300  0.49974600  0.59457400  1
  O  O78  1  0.83307933  0.00908967  0.57209267  1
  O  O79  1  0.65369467  0.12711133  0.52163033  1
  O  O80  1  0.20622200  0.01297200  0.68829700  1
  O  O81  1  0.50025400  0.84267700  0.59457400  1
  O  O82  1  0.80675000  0.79377800  0.68829700  1
  O  O83  1  0.98702800  0.19325000  0.68829700  1
  O  O84  1  0.67963867  0.14008333  0.64503633  1
  O  O85  1  0.85991667  0.53955533  0.64503633  1
  O  O86  1  0.16641267  0.49065633  0.73875933  1
  O  O87  1  0.46044467  0.32036133  0.64503633  1
  O  O88  1  0.01297200  0.20622200  0.81170300  1
  O  O89  1  0.83358733  0.32424367  0.76124067  1
  O  O90  1  0.32424367  0.83358733  0.73875933  1
  O  O91  1  0.49065633  0.16641267  0.76124067  1
  O  O92  1  0.53955533  0.85991667  0.85496367  1
  O  O93  1  0.67575633  0.50934367  0.76124067  1
  O  O94  1  0.82398967  0.99091033  0.92790733  1
  O  O95  1  0.14008333  0.67963867  0.85496367  1
  O  O96  1  0.19325000  0.98702800  0.81170300  1
  O  O97  1  0.50934367  0.67575633  0.73875933  1
  O  O98  1  0.65757700  0.15732300  0.90542600  1
  O  O99  1  0.79377800  0.80675000  0.81170300  1
  O  O100  1  0.84267700  0.50025400  0.90542600  1
  O  O101  1  0.00908967  0.83307933  0.92790733  1
  O  O102  1  0.49974600  0.34242300  0.90542600  1
  O  O103  1  0.32036133  0.46044467  0.85496367  1
  O  O104  1  0.87288867  0.34630533  0.02163033  1
  O  O105  1  0.16692067  0.17601033  0.92790733  1
  O  O106  1  0.47341667  0.12711133  0.02163033  1
  O  O107  1  0.65369467  0.52658333  0.02163033  1
