# generated using pymatgen
data_Y2Th5O13
_symmetry_space_group_name_H-M   'P 1'
_cell_length_a   3.92418831
_cell_length_b   3.92418831
_cell_length_c   68.12944418
_cell_angle_alpha   90.00000000
_cell_angle_beta   90.00000000
_cell_angle_gamma   120.00000000
_symmetry_Int_Tables_number   1
_chemical_formula_structural   Y2Th5O13
_chemical_formula_sum   'Y6 Th15 O39'
_cell_volume   908.58415167
_cell_formula_units_Z   3
loop_
 _symmetry_equiv_pos_site_id
 _symmetry_equiv_pos_as_xyz
  1  'x, y, z'
loop_
 _atom_site_type_symbol
 _atom_site_label
 _atom_site_symmetry_multiplicity
 _atom_site_fract_x
 _atom_site_fract_y
 _atom_site_fract_z
 _atom_site_occupancy
  Y  Y0  1  0.00000000  0.00000000  0.00064200  1
  Y  Y1  1  0.00000000  0.00000000  0.28393300  1
  Y  Y2  1  0.66666667  0.33333333  0.33397533  1
  Y  Y3  1  0.66666667  0.33333333  0.61726633  1
  Y  Y4  1  0.33333333  0.66666667  0.66730867  1
  Y  Y5  1  0.33333333  0.66666667  0.95059967  1
  Th  Th6  1  0.33333333  0.66666667  0.23932467  1
  Th  Th7  1  0.66666667  0.33333333  0.19116833  1
  Th  Th8  1  0.00000000  0.00000000  0.14330000  1
  Th  Th9  1  0.66666667  0.33333333  0.04739333  1
  Th  Th10  1  0.33333333  0.66666667  0.09536767  1
  Th  Th11  1  0.00000000  0.00000000  0.57265800  1
  Th  Th12  1  0.33333333  0.66666667  0.52450167  1
  Th  Th13  1  0.66666667  0.33333333  0.47663333  1
  Th  Th14  1  0.33333333  0.66666667  0.38072667  1
  Th  Th15  1  0.00000000  0.00000000  0.42870100  1
  Th  Th16  1  0.66666667  0.33333333  0.90599133  1
  Th  Th17  1  0.00000000  0.00000000  0.85783500  1
  Th  Th18  1  0.33333333  0.66666667  0.80996667  1
  Th  Th19  1  0.00000000  0.00000000  0.71406000  1
  Th  Th20  1  0.66666667  0.33333333  0.76203433  1
  O  O21  1  0.33333333  0.66666667  0.27450267  1
  O  O22  1  0.66666667  0.33333333  0.30288333  1
  O  O23  1  0.66666667  0.33333333  0.22640433  1
  O  O24  1  0.33333333  0.66666667  0.20247067  1
  O  O25  1  0.00000000  0.00000000  0.25056700  1
  O  O26  1  0.00000000  0.00000000  0.17837900  1
  O  O27  1  0.66666667  0.33333333  0.15464433  1
  O  O28  1  0.66666667  0.33333333  0.08251933  1
  O  O29  1  0.33333333  0.66666667  0.13056267  1
  O  O30  1  0.00000000  0.00000000  0.10678000  1
  O  O31  1  0.33333333  0.66666667  0.05892267  1
  O  O32  1  0.66666667  0.33333333  0.00697733  1
  O  O33  1  0.00000000  0.00000000  0.03517000  1
  O  O34  1  0.00000000  0.00000000  0.60783600  1
  O  O35  1  0.33333333  0.66666667  0.63621667  1
  O  O36  1  0.33333333  0.66666667  0.55973767  1
  O  O37  1  0.00000000  0.00000000  0.53580400  1
  O  O38  1  0.66666667  0.33333333  0.58390033  1
  O  O39  1  0.66666667  0.33333333  0.51171233  1
  O  O40  1  0.33333333  0.66666667  0.48797767  1
  O  O41  1  0.33333333  0.66666667  0.41585267  1
  O  O42  1  0.00000000  0.00000000  0.46389600  1
  O  O43  1  0.66666667  0.33333333  0.44011333  1
  O  O44  1  0.00000000  0.00000000  0.39225600  1
  O  O45  1  0.33333333  0.66666667  0.34031067  1
  O  O46  1  0.66666667  0.33333333  0.36850333  1
  O  O47  1  0.66666667  0.33333333  0.94116933  1
  O  O48  1  0.00000000  0.00000000  0.96955000  1
  O  O49  1  0.00000000  0.00000000  0.89307100  1
  O  O50  1  0.66666667  0.33333333  0.86913733  1
  O  O51  1  0.33333333  0.66666667  0.91723367  1
  O  O52  1  0.33333333  0.66666667  0.84504567  1
  O  O53  1  0.00000000  0.00000000  0.82131100  1
  O  O54  1  0.00000000  0.00000000  0.74918600  1
  O  O55  1  0.66666667  0.33333333  0.79722933  1
  O  O56  1  0.33333333  0.66666667  0.77344667  1
  O  O57  1  0.66666667  0.33333333  0.72558933  1
  O  O58  1  0.00000000  0.00000000  0.67364400  1
  O  O59  1  0.33333333  0.66666667  0.70183667  1
