# generated using pymatgen
data_Be(FeO2)2
_symmetry_space_group_name_H-M   'P 1'
_cell_length_a   3.05906900
_cell_length_b   9.47654600
_cell_length_c   9.88509900
_cell_angle_alpha   90.00000000
_cell_angle_beta   90.00000000
_cell_angle_gamma   90.00000000
_symmetry_Int_Tables_number   1
_chemical_formula_structural   Be(FeO2)2
_chemical_formula_sum   'Be4 Fe8 O16'
_cell_volume   286.56316898
_cell_formula_units_Z   4
loop_
 _symmetry_equiv_pos_site_id
 _symmetry_equiv_pos_as_xyz
  1  'x, y, z'
loop_
 _atom_site_type_symbol
 _atom_site_label
 _atom_site_symmetry_multiplicity
 _atom_site_fract_x
 _atom_site_fract_y
 _atom_site_fract_z
 _atom_site_occupancy
  Be  Be0  1  0.25000000  0.66214400  0.37968200  1
  Be  Be1  1  0.75000000  0.83785600  0.87968200  1
  Be  Be2  1  0.25000000  0.16214400  0.12031800  1
  Be  Be3  1  0.75000000  0.33785600  0.62031800  1
  Fe  Fe4  1  0.25000000  0.61237100  0.69266200  1
  Fe  Fe5  1  0.25000000  0.62054400  0.07063100  1
  Fe  Fe6  1  0.75000000  0.87945600  0.57063100  1
  Fe  Fe7  1  0.75000000  0.88762900  0.19266200  1
  Fe  Fe8  1  0.25000000  0.11237100  0.80733800  1
  Fe  Fe9  1  0.25000000  0.12054400  0.42936900  1
  Fe  Fe10  1  0.75000000  0.37945600  0.92936900  1
  Fe  Fe11  1  0.75000000  0.38762900  0.30733800  1
  O  O12  1  0.25000000  0.51605000  0.88415900  1
  O  O13  1  0.25000000  0.50189300  0.36727300  1
  O  O14  1  0.75000000  0.75498200  0.74390800  1
  O  O15  1  0.25000000  0.74301800  0.51678800  1
  O  O16  1  0.75000000  0.75698200  0.01678800  1
  O  O17  1  0.25000000  0.74501800  0.24390800  1
  O  O18  1  0.75000000  0.99810700  0.86727300  1
  O  O19  1  0.75000000  0.98395000  0.38415900  1
  O  O20  1  0.25000000  0.01605000  0.61584100  1
  O  O21  1  0.25000000  0.00189300  0.13272700  1
  O  O22  1  0.75000000  0.25498200  0.75609200  1
  O  O23  1  0.25000000  0.24301800  0.98321200  1
  O  O24  1  0.75000000  0.25698200  0.48321200  1
  O  O25  1  0.25000000  0.24501800  0.25609200  1
  O  O26  1  0.75000000  0.49810700  0.63272700  1
  O  O27  1  0.75000000  0.48395000  0.11584100  1
