# generated using pymatgen
data_ErAlO3
_symmetry_space_group_name_H-M   'P 1'
_cell_length_a   3.44575210
_cell_length_b   3.44575210
_cell_length_c   11.44968200
_cell_angle_alpha   90.00000000
_cell_angle_beta   90.00000000
_cell_angle_gamma   120.00000000
_symmetry_Int_Tables_number   1
_chemical_formula_structural   ErAlO3
_chemical_formula_sum   'Er2 Al2 O6'
_cell_volume   117.73134777
_cell_formula_units_Z   2
loop_
 _symmetry_equiv_pos_site_id
 _symmetry_equiv_pos_as_xyz
  1  'x, y, z'
loop_
 _atom_site_type_symbol
 _atom_site_label
 _atom_site_symmetry_multiplicity
 _atom_site_fract_x
 _atom_site_fract_y
 _atom_site_fract_z
 _atom_site_occupancy
  Er  Er0  1  0.00000000  0.00000000  0.50000000  1
  Er  Er1  1  0.00000000  0.00000000  0.00000000  1
  Al  Al2  1  0.66666667  0.33333333  0.75000000  1
  Al  Al3  1  0.33333333  0.66666667  0.25000000  1
  O  O4  1  0.66666667  0.33333333  0.59108700  1
  O  O5  1  0.66666667  0.33333333  0.90891300  1
  O  O6  1  0.00000000  0.00000000  0.75000000  1
  O  O7  1  0.00000000  0.00000000  0.25000000  1
  O  O8  1  0.33333333  0.66666667  0.40891300  1
  O  O9  1  0.33333333  0.66666667  0.09108700  1
