# generated using pymatgen
data_V3(O2F)2
_symmetry_space_group_name_H-M   'P 1'
_cell_length_a   5.09574606
_cell_length_b   5.11616422
_cell_length_c   5.57113565
_cell_angle_alpha   91.95763270
_cell_angle_beta   116.39842253
_cell_angle_gamma   118.45390134
_symmetry_Int_Tables_number   1
_chemical_formula_structural   V3(O2F)2
_chemical_formula_sum   'V3 O4 F2'
_cell_volume   108.65862529
_cell_formula_units_Z   1
loop_
 _symmetry_equiv_pos_site_id
 _symmetry_equiv_pos_as_xyz
  1  'x, y, z'
loop_
 _atom_site_type_symbol
 _atom_site_label
 _atom_site_symmetry_multiplicity
 _atom_site_fract_x
 _atom_site_fract_y
 _atom_site_fract_z
 _atom_site_occupancy
  V  V0  1  0.28529000  0.62435600  0.93839500  1
  V  V1  1  0.70193700  0.83299700  0.56523100  1
  V  V2  1  0.65590100  0.32804300  0.01068800  1
  O  O3  1  0.85442200  0.25040400  0.78592800  1
  O  O4  1  0.50772900  0.57561500  0.75695700  1
  O  O5  1  0.19901600  0.91850000  0.79970700  1
  O  O6  1  0.54463000  0.51272300  0.23348600  1
  F  F7  1  0.77929700  0.07355800  0.25993300  1
  F  F8  1  0.17456400  0.71134900  0.24545600  1
