# generated using pymatgen
data_NbRhO4
_symmetry_space_group_name_H-M   'P 1'
_cell_length_a   6.81119000
_cell_length_b   6.81119000
_cell_length_c   6.06248600
_cell_angle_alpha   90.00000000
_cell_angle_beta   90.00000000
_cell_angle_gamma   90.00000000
_symmetry_Int_Tables_number   1
_chemical_formula_structural   NbRhO4
_chemical_formula_sum   'Nb4 Rh4 O16'
_cell_volume   281.25272513
_cell_formula_units_Z   4
loop_
 _symmetry_equiv_pos_site_id
 _symmetry_equiv_pos_as_xyz
  1  'x, y, z'
loop_
 _atom_site_type_symbol
 _atom_site_label
 _atom_site_symmetry_multiplicity
 _atom_site_fract_x
 _atom_site_fract_y
 _atom_site_fract_z
 _atom_site_occupancy
  Nb  Nb0  1  0.00000000  0.00000000  0.26545300  1
  Nb  Nb1  1  0.50000000  0.00000000  0.51545300  1
  Nb  Nb2  1  0.50000000  0.50000000  0.76545300  1
  Nb  Nb3  1  0.00000000  0.50000000  0.01545300  1
  Rh  Rh4  1  0.50000000  0.50000000  0.24752800  1
  Rh  Rh5  1  0.50000000  0.00000000  0.99752800  1
  Rh  Rh6  1  0.00000000  0.00000000  0.74752800  1
  Rh  Rh7  1  0.00000000  0.50000000  0.49752800  1
  O  O8  1  0.69440150  0.00000000  0.25560250  1
  O  O9  1  0.70579700  0.00000000  0.73790700  1
  O  O10  1  0.50000000  0.30559850  0.50560250  1
  O  O11  1  0.00000000  0.79420300  0.48790700  1
  O  O12  1  0.00000000  0.20579700  0.48790700  1
  O  O13  1  0.00000000  0.19440150  0.00560250  1
  O  O14  1  0.80559850  0.50000000  0.75560250  1
  O  O15  1  0.79420300  0.50000000  0.23790700  1
  O  O16  1  0.19440150  0.50000000  0.75560250  1
  O  O17  1  0.20579700  0.50000000  0.23790700  1
  O  O18  1  0.00000000  0.80559850  0.00560250  1
  O  O19  1  0.50000000  0.29420300  0.98790700  1
  O  O20  1  0.50000000  0.70579700  0.98790700  1
  O  O21  1  0.50000000  0.69440150  0.50560250  1
  O  O22  1  0.30559850  0.00000000  0.25560250  1
  O  O23  1  0.29420300  0.00000000  0.73790700  1
