# generated using pymatgen
data_B8O
_symmetry_space_group_name_H-M   'P 1'
_cell_length_a   14.78172400
_cell_length_b   10.61679400
_cell_length_c   5.14194516
_cell_angle_alpha   90.00000000
_cell_angle_beta   92.63365302
_cell_angle_gamma   90.00000000
_symmetry_Int_Tables_number   1
_chemical_formula_structural   B8O
_chemical_formula_sum   'B96 O12'
_cell_volume   806.09635225
_cell_formula_units_Z   12
loop_
 _symmetry_equiv_pos_site_id
 _symmetry_equiv_pos_as_xyz
  1  'x, y, z'
loop_
 _atom_site_type_symbol
 _atom_site_label
 _atom_site_symmetry_multiplicity
 _atom_site_fract_x
 _atom_site_fract_y
 _atom_site_fract_z
 _atom_site_occupancy
  B  B0  1  0.89920200  0.00000000  0.12257700  1
  B  B1  1  0.99964500  0.00000000  0.66445700  1
  B  B2  1  0.25031550  0.24659150  0.16453400  1
  B  B3  1  0.16753250  0.16382250  0.33004300  1
  B  B4  1  0.91638900  0.91676800  0.83108300  1
  B  B5  1  0.77978300  0.88187100  0.36115800  1
  B  B6  1  0.66608650  0.83309950  0.33139300  1
  B  B7  1  0.91638900  0.08323200  0.83108300  1
  B  B8  1  0.77978300  0.11812900  0.36115800  1
  B  B9  1  0.64936900  0.75140700  0.62235500  1
  B  B10  1  0.46927400  0.63139600  0.14012800  1
  B  B11  1  0.71499650  0.89138950  0.64251000  1
  B  B12  1  0.58541700  0.91696900  0.16302900  1
  B  B13  1  0.25031550  0.75340850  0.16453400  1
  B  B14  1  0.46871250  0.86952650  0.14157500  1
  B  B15  1  0.71499650  0.10861050  0.64251000  1
  B  B16  1  0.66608650  0.16690050  0.33139300  1
  B  B17  1  0.58541700  0.08303100  0.16302900  1
  B  B18  1  0.53072600  0.63139600  0.85987200  1
  B  B19  1  0.50013200  0.00000000  0.33526400  1
  B  B20  1  0.16753250  0.83617750  0.33004300  1
  B  B21  1  0.35063100  0.75140700  0.37764500  1
  B  B22  1  0.60633400  0.00000000  0.85991900  1
  B  B23  1  0.53128750  0.86952650  0.85842500  1
  B  B24  1  0.64936900  0.24859300  0.62235500  1
  B  B25  1  0.39366600  0.00000000  0.14008100  1
  B  B26  1  0.46871250  0.13047350  0.14157500  1
  B  B27  1  0.83246750  0.16382250  0.66995700  1
  B  B28  1  0.49986800  0.00000000  0.66473600  1
  B  B29  1  0.46927400  0.36860400  0.14012800  1
  B  B30  1  0.41458300  0.91696900  0.83697100  1
  B  B31  1  0.33391350  0.83309950  0.66860700  1
  B  B32  1  0.28500350  0.89138950  0.35749000  1
  B  B33  1  0.53128750  0.13047350  0.85842500  1
  B  B34  1  0.74968450  0.24659150  0.83546600  1
  B  B35  1  0.41458300  0.08303100  0.83697100  1
  B  B36  1  0.35063100  0.24859300  0.37764500  1
  B  B37  1  0.53072600  0.36860400  0.85987200  1
  B  B38  1  0.28500350  0.10861050  0.35749000  1
  B  B39  1  0.22021700  0.88187100  0.63884200  1
  B  B40  1  0.33391350  0.16690050  0.66860700  1
  B  B41  1  0.08361100  0.91676800  0.16891700  1
  B  B42  1  0.22021700  0.11812900  0.63884200  1
  B  B43  1  0.83246750  0.83617750  0.66995700  1
  B  B44  1  0.08361100  0.08323200  0.16891700  1
  B  B45  1  0.74968450  0.75340850  0.83546600  1
  B  B46  1  0.00035500  0.00000000  0.33554300  1
  B  B47  1  0.10079800  0.00000000  0.87742300  1
  B  B48  1  0.39920200  0.50000000  0.12257700  1
  B  B49  1  0.49964500  0.50000000  0.66445700  1
  B  B50  1  0.75031550  0.74659150  0.16453400  1
  B  B51  1  0.66753250  0.66382250  0.33004300  1
  B  B52  1  0.41638900  0.41676800  0.83108300  1
  B  B53  1  0.27978300  0.38187100  0.36115800  1
  B  B54  1  0.16608650  0.33309950  0.33139300  1
  B  B55  1  0.41638900  0.58323200  0.83108300  1
  B  B56  1  0.27978300  0.61812900  0.36115800  1
  B  B57  1  0.14936900  0.25140700  0.62235500  1
  B  B58  1  0.96927400  0.13139600  0.14012800  1
  B  B59  1  0.21499650  0.39138950  0.64251000  1
  B  B60  1  0.08541700  0.41696900  0.16302900  1
  B  B61  1  0.75031550  0.25340850  0.16453400  1
  B  B62  1  0.96871250  0.36952650  0.14157500  1
  B  B63  1  0.21499650  0.60861050  0.64251000  1
  B  B64  1  0.16608650  0.66690050  0.33139300  1
  B  B65  1  0.08541700  0.58303100  0.16302900  1
  B  B66  1  0.03072600  0.13139600  0.85987200  1
  B  B67  1  0.00013200  0.50000000  0.33526400  1
  B  B68  1  0.66753250  0.33617750  0.33004300  1
  B  B69  1  0.85063100  0.25140700  0.37764500  1
  B  B70  1  0.10633400  0.50000000  0.85991900  1
  B  B71  1  0.03128750  0.36952650  0.85842500  1
  B  B72  1  0.14936900  0.74859300  0.62235500  1
  B  B73  1  0.89366600  0.50000000  0.14008100  1
  B  B74  1  0.96871250  0.63047350  0.14157500  1
  B  B75  1  0.33246750  0.66382250  0.66995700  1
  B  B76  1  0.99986800  0.50000000  0.66473600  1
  B  B77  1  0.96927400  0.86860400  0.14012800  1
  B  B78  1  0.91458300  0.41696900  0.83697100  1
  B  B79  1  0.83391350  0.33309950  0.66860700  1
  B  B80  1  0.78500350  0.39138950  0.35749000  1
  B  B81  1  0.03128750  0.63047350  0.85842500  1
  B  B82  1  0.24968450  0.74659150  0.83546600  1
  B  B83  1  0.91458300  0.58303100  0.83697100  1
  B  B84  1  0.85063100  0.74859300  0.37764500  1
  B  B85  1  0.03072600  0.86860400  0.85987200  1
  B  B86  1  0.78500350  0.60861050  0.35749000  1
  B  B87  1  0.72021700  0.38187100  0.63884200  1
  B  B88  1  0.83391350  0.66690050  0.66860700  1
  B  B89  1  0.58361100  0.41676800  0.16891700  1
  B  B90  1  0.72021700  0.61812900  0.63884200  1
  B  B91  1  0.33246750  0.33617750  0.66995700  1
  B  B92  1  0.58361100  0.58323200  0.16891700  1
  B  B93  1  0.24968450  0.25340850  0.83546600  1
  B  B94  1  0.50035500  0.50000000  0.33554300  1
  B  B95  1  0.60079800  0.50000000  0.87742300  1
  O  O96  1  0.80957300  0.00000000  0.23914300  1
  O  O97  1  0.43966050  0.75023750  0.25896000  1
  O  O98  1  0.56033950  0.75023750  0.74104000  1
  O  O99  1  0.43966050  0.24976250  0.25896000  1
  O  O100  1  0.56033950  0.24976250  0.74104000  1
  O  O101  1  0.19042700  0.00000000  0.76085700  1
  O  O102  1  0.30957300  0.50000000  0.23914300  1
  O  O103  1  0.93966050  0.25023750  0.25896000  1
  O  O104  1  0.06033950  0.25023750  0.74104000  1
  O  O105  1  0.93966050  0.74976250  0.25896000  1
  O  O106  1  0.06033950  0.74976250  0.74104000  1
  O  O107  1  0.69042700  0.50000000  0.76085700  1
