# generated using pymatgen
data_Li4Nb3V3(SbO8)2
_symmetry_space_group_name_H-M   'P 1'
_cell_length_a   10.62559800
_cell_length_b   6.11528800
_cell_length_c   10.62909367
_cell_angle_alpha   90.00000000
_cell_angle_beta   90.48171938
_cell_angle_gamma   90.00000000
_symmetry_Int_Tables_number   1
_chemical_formula_structural   Li4Nb3V3(SbO8)2
_chemical_formula_sum   'Li8 Nb6 V6 Sb4 O32'
_cell_volume   690.63912979
_cell_formula_units_Z   2
loop_
 _symmetry_equiv_pos_site_id
 _symmetry_equiv_pos_as_xyz
  1  'x, y, z'
loop_
 _atom_site_type_symbol
 _atom_site_label
 _atom_site_symmetry_multiplicity
 _atom_site_fract_x
 _atom_site_fract_y
 _atom_site_fract_z
 _atom_site_occupancy
  Li  Li0  1  0.66656300  0.00000000  0.90172900  1
  Li  Li1  1  0.50377500  0.50000000  0.99215100  1
  Li  Li2  1  0.50228600  0.50000000  0.49395900  1
  Li  Li3  1  0.83906700  0.50000000  0.39232800  1
  Li  Li4  1  0.16656300  0.50000000  0.90172900  1
  Li  Li5  1  0.00377500  0.00000000  0.99215100  1
  Li  Li6  1  0.00228600  0.00000000  0.49395900  1
  Li  Li7  1  0.33906700  0.00000000  0.39232800  1
  Nb  Nb8  1  0.82482800  0.00000000  0.22633800  1
  Nb  Nb9  1  0.90682050  0.73690350  0.72129000  1
  Nb  Nb10  1  0.90682050  0.26309650  0.72129000  1
  Nb  Nb11  1  0.32482800  0.50000000  0.22633800  1
  Nb  Nb12  1  0.40682050  0.23690350  0.72129000  1
  Nb  Nb13  1  0.40682050  0.76309650  0.72129000  1
  V  V14  1  0.58299350  0.24283250  0.21528300  1
  V  V15  1  0.58299350  0.75716750  0.21528300  1
  V  V16  1  0.66984700  0.50000000  0.71079700  1
  V  V17  1  0.08299350  0.74283250  0.21528300  1
  V  V18  1  0.08299350  0.25716750  0.21528300  1
  V  V19  1  0.16984700  0.00000000  0.71079700  1
  Sb  Sb20  1  0.65891000  0.00000000  0.51054600  1
  Sb  Sb21  1  0.83020500  0.50000000  0.01661400  1
  Sb  Sb22  1  0.15891000  0.50000000  0.51054600  1
  Sb  Sb23  1  0.33020500  0.00000000  0.01661400  1
  O  O24  1  0.57308200  0.25562600  0.60355100  1
  O  O25  1  0.51346600  0.00000000  0.31547000  1
  O  O26  1  0.67623400  0.00000000  0.10732100  1
  O  O27  1  0.99477000  0.00000000  0.31238400  1
  O  O28  1  0.99805200  0.00000000  0.81085500  1
  O  O29  1  0.57308200  0.74437400  0.60355100  1
  O  O30  1  0.74994150  0.23484150  0.32006000  1
  O  O31  1  0.74994150  0.76515850  0.32006000  1
  O  O32  1  0.65676300  0.50000000  0.11196400  1
  O  O33  1  0.84461800  0.00000000  0.60260000  1
  O  O34  1  0.76007450  0.75028550  0.82256400  1
  O  O35  1  0.76007450  0.24971450  0.82256400  1
  O  O36  1  0.83767800  0.50000000  0.59569300  1
  O  O37  1  0.92271600  0.76607200  0.10440900  1
  O  O38  1  0.99103200  0.50000000  0.83275500  1
  O  O39  1  0.92271600  0.23392800  0.10440900  1
  O  O40  1  0.07308200  0.75562600  0.60355100  1
  O  O41  1  0.01346600  0.50000000  0.31547000  1
  O  O42  1  0.17623400  0.50000000  0.10732100  1
  O  O43  1  0.49477000  0.50000000  0.31238400  1
  O  O44  1  0.49805200  0.50000000  0.81085500  1
  O  O45  1  0.07308200  0.24437400  0.60355100  1
  O  O46  1  0.24994150  0.73484150  0.32006000  1
  O  O47  1  0.24994150  0.26515850  0.32006000  1
  O  O48  1  0.15676300  0.00000000  0.11196400  1
  O  O49  1  0.34461800  0.50000000  0.60260000  1
  O  O50  1  0.26007450  0.25028550  0.82256400  1
  O  O51  1  0.26007450  0.74971450  0.82256400  1
  O  O52  1  0.33767800  0.00000000  0.59569300  1
  O  O53  1  0.42271600  0.26607200  0.10440900  1
  O  O54  1  0.49103200  0.00000000  0.83275500  1
  O  O55  1  0.42271600  0.73392800  0.10440900  1
