# generated using pymatgen
data_Li7MgNi7O16
_symmetry_space_group_name_H-M   'P 1'
_cell_length_a   9.90535200
_cell_length_b   11.46953600
_cell_length_c   4.99618959
_cell_angle_alpha   90.00000000
_cell_angle_beta   109.50606646
_cell_angle_gamma   90.00000000
_symmetry_Int_Tables_number   1
_chemical_formula_structural   Li7MgNi7O16
_chemical_formula_sum   'Li14 Mg2 Ni14 O32'
_cell_volume   535.03838220
_cell_formula_units_Z   2
loop_
 _symmetry_equiv_pos_site_id
 _symmetry_equiv_pos_as_xyz
  1  'x, y, z'
loop_
 _atom_site_type_symbol
 _atom_site_label
 _atom_site_symmetry_multiplicity
 _atom_site_fract_x
 _atom_site_fract_y
 _atom_site_fract_z
 _atom_site_occupancy
  Li  Li0  1  0.25247300  0.74985300  0.49902000  1
  Li  Li1  1  0.24168300  0.00183700  0.47248800  1
  Li  Li2  1  0.50000000  0.61929800  0.50000000  1
  Li  Li3  1  0.74752700  0.74985300  0.50098000  1
  Li  Li4  1  0.50000000  0.87816700  0.50000000  1
  Li  Li5  1  0.50000000  0.12083600  0.50000000  1
  Li  Li6  1  0.75831700  0.00183700  0.52751200  1
  Li  Li7  1  0.75247300  0.24985300  0.49902000  1
  Li  Li8  1  0.74168300  0.50183700  0.47248800  1
  Li  Li9  1  0.00000000  0.11929800  0.50000000  1
  Li  Li10  1  0.24752700  0.24985300  0.50098000  1
  Li  Li11  1  0.00000000  0.37816700  0.50000000  1
  Li  Li12  1  0.00000000  0.62083600  0.50000000  1
  Li  Li13  1  0.25831700  0.50183700  0.52751200  1
  Mg  Mg14  1  0.50000000  0.38214900  0.50000000  1
  Mg  Mg15  1  0.00000000  0.88214900  0.50000000  1
  Ni  Ni16  1  0.24612350  0.87747850  0.99901500  1
  Ni  Ni17  1  0.50000000  0.75110300  0.00000000  1
  Ni  Ni18  1  0.24560400  0.12408600  0.00201700  1
  Ni  Ni19  1  0.50000000  0.99888100  0.00000000  1
  Ni  Ni20  1  0.75387650  0.87747850  0.00098500  1
  Ni  Ni21  1  0.50000000  0.25032900  0.00000000  1
  Ni  Ni22  1  0.75439600  0.12408600  0.99798300  1
  Ni  Ni23  1  0.74612350  0.37747850  0.99901500  1
  Ni  Ni24  1  0.00000000  0.25110300  0.00000000  1
  Ni  Ni25  1  0.74560400  0.62408600  0.00201700  1
  Ni  Ni26  1  0.00000000  0.49888100  0.00000000  1
  Ni  Ni27  1  0.25387650  0.37747850  0.00098500  1
  Ni  Ni28  1  0.00000000  0.75032900  0.00000000  1
  Ni  Ni29  1  0.25439600  0.62408600  0.99798300  1
  O  O30  1  0.37355850  0.64104350  0.77324800  1
  O  O31  1  0.14249500  0.99244700  0.75019900  1
  O  O32  1  0.37311250  0.75348450  0.21333900  1
  O  O33  1  0.38918000  0.87290600  0.78177700  1
  O  O34  1  0.38080650  0.12497550  0.79107400  1
  O  O35  1  0.36365100  0.00088200  0.23479600  1
  O  O36  1  0.62688750  0.75348450  0.78666100  1
  O  O37  1  0.62644150  0.64104350  0.22675200  1
  O  O38  1  0.63634900  0.00088200  0.76520400  1
  O  O39  1  0.38186900  0.25441700  0.22619400  1
  O  O40  1  0.37934400  0.35620700  0.76091800  1
  O  O41  1  0.61082000  0.87290600  0.21822300  1
  O  O42  1  0.61813100  0.25441700  0.77380600  1
  O  O43  1  0.61919350  0.12497550  0.20892600  1
  O  O44  1  0.62065600  0.35620700  0.23908200  1
  O  O45  1  0.85750500  0.99244700  0.24980100  1
  O  O46  1  0.87355850  0.14104350  0.77324800  1
  O  O47  1  0.64249500  0.49244700  0.75019900  1
  O  O48  1  0.87311250  0.25348450  0.21333900  1
  O  O49  1  0.88918000  0.37290600  0.78177700  1
  O  O50  1  0.88080650  0.62497550  0.79107400  1
  O  O51  1  0.86365100  0.50088200  0.23479600  1
  O  O52  1  0.12688750  0.25348450  0.78666100  1
  O  O53  1  0.12644150  0.14104350  0.22675200  1
  O  O54  1  0.13634900  0.50088200  0.76520400  1
  O  O55  1  0.88186900  0.75441700  0.22619400  1
  O  O56  1  0.87934400  0.85620700  0.76091800  1
  O  O57  1  0.11082000  0.37290600  0.21822300  1
  O  O58  1  0.11813100  0.75441700  0.77380600  1
  O  O59  1  0.11919350  0.62497550  0.20892600  1
  O  O60  1  0.12065600  0.85620700  0.23908200  1
  O  O61  1  0.35750500  0.49244700  0.24980100  1
