# generated using pymatgen
data_GaBiO3
_symmetry_space_group_name_H-M   'P 1'
_cell_length_a   5.58496247
_cell_length_b   5.58496247
_cell_length_c   13.88778718
_cell_angle_alpha   90.00000000
_cell_angle_beta   90.00000000
_cell_angle_gamma   120.00000000
_symmetry_Int_Tables_number   1
_chemical_formula_structural   GaBiO3
_chemical_formula_sum   'Ga6 Bi6 O18'
_cell_volume   375.14935380
_cell_formula_units_Z   6
loop_
 _symmetry_equiv_pos_site_id
 _symmetry_equiv_pos_as_xyz
  1  'x, y, z'
loop_
 _atom_site_type_symbol
 _atom_site_label
 _atom_site_symmetry_multiplicity
 _atom_site_fract_x
 _atom_site_fract_y
 _atom_site_fract_z
 _atom_site_occupancy
  Ga  Ga0  1  0.33333333  0.66666667  0.17761067  1
  Ga  Ga1  1  0.00000000  0.00000000  0.01094400  1
  Ga  Ga2  1  0.00000000  0.00000000  0.51094400  1
  Ga  Ga3  1  0.66666667  0.33333333  0.34427733  1
  Ga  Ga4  1  0.66666667  0.33333333  0.84427733  1
  Ga  Ga5  1  0.33333333  0.66666667  0.67761067  1
  Bi  Bi6  1  0.66666667  0.33333333  0.11976433  1
  Bi  Bi7  1  0.00000000  0.00000000  0.28643100  1
  Bi  Bi8  1  0.33333333  0.66666667  0.45309767  1
  Bi  Bi9  1  0.66666667  0.33333333  0.61976433  1
  Bi  Bi10  1  0.00000000  0.00000000  0.78643100  1
  Bi  Bi11  1  0.33333333  0.66666667  0.95309767  1
  O  O12  1  0.24465700  0.35046700  0.07657600  1
  O  O13  1  0.64953300  0.89419000  0.07657600  1
  O  O14  1  0.10581000  0.75534300  0.07657600  1
  O  O15  1  0.57799033  0.56085667  0.24324267  1
  O  O16  1  0.98286633  0.42200967  0.24324267  1
  O  O17  1  0.43914333  0.01713367  0.24324267  1
  O  O18  1  0.91132367  0.68380033  0.40990933  1
  O  O19  1  0.31619967  0.22752333  0.40990933  1
  O  O20  1  0.77247667  0.08867633  0.40990933  1
  O  O21  1  0.24465700  0.89419000  0.57657600  1
  O  O22  1  0.64953300  0.75534300  0.57657600  1
  O  O23  1  0.10581000  0.35046700  0.57657600  1
  O  O24  1  0.57799033  0.01713367  0.74324267  1
  O  O25  1  0.98286633  0.56085667  0.74324267  1
  O  O26  1  0.43914333  0.42200967  0.74324267  1
  O  O27  1  0.91132367  0.22752333  0.90990933  1
  O  O28  1  0.31619967  0.08867633  0.90990933  1
  O  O29  1  0.77247667  0.68380033  0.90990933  1
