# generated using pymatgen
data_SbH5(Cl3O)2
_symmetry_space_group_name_H-M   'P 1'
_cell_length_a   12.23294200
_cell_length_b   7.23158800
_cell_length_c   13.60150110
_cell_angle_alpha   90.00000000
_cell_angle_beta   114.13852378
_cell_angle_gamma   90.00000000
_symmetry_Int_Tables_number   1
_chemical_formula_structural   SbH5(Cl3O)2
_chemical_formula_sum   'Sb4 H20 Cl24 O8'
_cell_volume   1098.02590717
_cell_formula_units_Z   4
loop_
 _symmetry_equiv_pos_site_id
 _symmetry_equiv_pos_as_xyz
  1  'x, y, z'
loop_
 _atom_site_type_symbol
 _atom_site_label
 _atom_site_symmetry_multiplicity
 _atom_site_fract_x
 _atom_site_fract_y
 _atom_site_fract_z
 _atom_site_occupancy
  Sb  Sb0  1  0.75092250  0.25173050  0.74884500  1
  Sb  Sb1  1  0.74907750  0.75173050  0.25115500  1
  Sb  Sb2  1  0.25092250  0.75173050  0.74884500  1
  Sb  Sb3  1  0.24907750  0.25173050  0.25115500  1
  H  H4  1  0.41480350  0.72215550  0.58389300  1
  H  H5  1  0.55157050  0.78823550  0.65030300  1
  H  H6  1  0.50000000  0.78080900  0.50000000  1
  H  H7  1  0.44842950  0.78823550  0.34969700  1
  H  H8  1  0.41251950  0.27760350  0.08075400  1
  H  H9  1  0.58519650  0.72215550  0.41610700  1
  H  H10  1  0.55096150  0.22867850  0.14906800  1
  H  H11  1  0.00000000  0.72111300  0.00000000  1
  H  H12  1  0.94903850  0.72867850  0.85093200  1
  H  H13  1  0.08748050  0.77760350  0.91924600  1
  H  H14  1  0.91480350  0.22215550  0.58389300  1
  H  H15  1  0.05157050  0.28823550  0.65030300  1
  H  H16  1  0.00000000  0.28080900  0.50000000  1
  H  H17  1  0.94842950  0.28823550  0.34969700  1
  H  H18  1  0.91251950  0.77760350  0.08075400  1
  H  H19  1  0.08519650  0.22215550  0.41610700  1
  H  H20  1  0.05096150  0.72867850  0.14906800  1
  H  H21  1  0.50000000  0.22111300  0.00000000  1
  H  H22  1  0.44903850  0.22867850  0.85093200  1
  H  H23  1  0.58748050  0.27760350  0.91924600  1
  Cl  Cl24  1  0.28241400  0.95419100  0.18219400  1
  Cl  Cl25  1  0.75432700  0.90371400  0.09300700  1
  Cl  Cl26  1  0.03934650  0.79176650  0.65670200  1
  Cl  Cl27  1  0.96065350  0.79176650  0.34329800  1
  Cl  Cl28  1  0.74567300  0.40371400  0.90699300  1
  Cl  Cl29  1  0.21758600  0.45419100  0.81780600  1
  Cl  Cl30  1  0.78304900  0.54510300  0.67974500  1
  Cl  Cl31  1  0.75594800  0.09375800  0.59224300  1
  Cl  Cl32  1  0.53946700  0.70674500  0.15988000  1
  Cl  Cl33  1  0.96053300  0.20674500  0.84012000  1
  Cl  Cl34  1  0.74405200  0.59375800  0.40775700  1
  Cl  Cl35  1  0.71695100  0.04510300  0.32025500  1
  Cl  Cl36  1  0.78241400  0.45419100  0.18219400  1
  Cl  Cl37  1  0.25432700  0.40371400  0.09300700  1
  Cl  Cl38  1  0.53934650  0.29176650  0.65670200  1
  Cl  Cl39  1  0.46065350  0.29176650  0.34329800  1
  Cl  Cl40  1  0.24567300  0.90371400  0.90699300  1
  Cl  Cl41  1  0.71758600  0.95419100  0.81780600  1
  Cl  Cl42  1  0.28304900  0.04510300  0.67974500  1
  Cl  Cl43  1  0.25594800  0.59375800  0.59224300  1
  Cl  Cl44  1  0.03946700  0.20674500  0.15988000  1
  Cl  Cl45  1  0.46053300  0.70674500  0.84012000  1
  Cl  Cl46  1  0.24405200  0.09375800  0.40775700  1
  Cl  Cl47  1  0.21695100  0.54510300  0.32025500  1
  O  O48  1  0.48241100  0.79329900  0.58048100  1
  O  O49  1  0.51758900  0.79329900  0.41951900  1
  O  O50  1  0.48246500  0.20957100  0.07992500  1
  O  O51  1  0.01753500  0.70957100  0.92007500  1
  O  O52  1  0.98241100  0.29329900  0.58048100  1
  O  O53  1  0.01758900  0.29329900  0.41951900  1
  O  O54  1  0.98246500  0.70957100  0.07992500  1
  O  O55  1  0.51753500  0.20957100  0.92007500  1
