# generated using pymatgen
data_DyTlO2
_symmetry_space_group_name_H-M   'P 1'
_cell_length_a   3.50404188
_cell_length_b   3.50404188
_cell_length_c   19.54080917
_cell_angle_alpha   90.00000000
_cell_angle_beta   90.00000000
_cell_angle_gamma   120.00000000
_symmetry_Int_Tables_number   1
_chemical_formula_structural   DyTlO2
_chemical_formula_sum   'Dy3 Tl3 O6'
_cell_volume   207.78383179
_cell_formula_units_Z   3
loop_
 _symmetry_equiv_pos_site_id
 _symmetry_equiv_pos_as_xyz
  1  'x, y, z'
loop_
 _atom_site_type_symbol
 _atom_site_label
 _atom_site_symmetry_multiplicity
 _atom_site_fract_x
 _atom_site_fract_y
 _atom_site_fract_z
 _atom_site_occupancy
  Dy  Dy0  1  0.33333333  0.66666667  0.16666667  1
  Dy  Dy1  1  1.00000000  1.00000000  0.50000000  1
  Dy  Dy2  1  0.66666667  0.33333333  0.83333333  1
  Tl  Tl3  1  0.00000000  0.00000000  0.00000000  1
  Tl  Tl4  1  0.66666667  0.33333333  0.33333333  1
  Tl  Tl5  1  0.33333333  0.66666667  0.66666667  1
  O  O6  1  0.00000000  0.00000000  0.22372400  1
  O  O7  1  0.66666667  0.33333333  0.10960933  1
  O  O8  1  0.66666667  0.33333333  0.55705733  1
  O  O9  1  0.33333333  0.66666667  0.44294267  1
  O  O10  1  0.33333333  0.66666667  0.89039067  1
  O  O11  1  0.00000000  0.00000000  0.77627600  1
