# generated using pymatgen
data_CaPbI6
_symmetry_space_group_name_H-M   'P 1'
_cell_length_a   13.11622800
_cell_length_b   21.08903600
_cell_length_c   23.49726200
_cell_angle_alpha   90.00000000
_cell_angle_beta   90.00000000
_cell_angle_gamma   90.00000000
_symmetry_Int_Tables_number   1
_chemical_formula_structural   CaPbI6
_chemical_formula_sum   'Ca16 Pb16 I96'
_cell_volume   6499.54485083
_cell_formula_units_Z   16
loop_
 _symmetry_equiv_pos_site_id
 _symmetry_equiv_pos_as_xyz
  1  'x, y, z'
loop_
 _atom_site_type_symbol
 _atom_site_label
 _atom_site_symmetry_multiplicity
 _atom_site_fract_x
 _atom_site_fract_y
 _atom_site_fract_z
 _atom_site_occupancy
  Ca  Ca0  1  0.66376550  0.85899600  0.89039250  1
  Ca  Ca1  1  0.91376550  0.89100400  0.64039250  1
  Ca  Ca2  1  0.41376550  0.10899600  0.85960750  1
  Ca  Ca3  1  0.16376550  0.14100400  0.60960750  1
  Ca  Ca4  1  0.16376550  0.85899600  0.39039250  1
  Ca  Ca5  1  0.41376550  0.89100400  0.14039250  1
  Ca  Ca6  1  0.91376550  0.10899600  0.35960750  1
  Ca  Ca7  1  0.66376550  0.14100400  0.10960750  1
  Ca  Ca8  1  0.16376550  0.35899600  0.89039250  1
  Ca  Ca9  1  0.41376550  0.39100400  0.64039250  1
  Ca  Ca10  1  0.91376550  0.60899600  0.85960750  1
  Ca  Ca11  1  0.66376550  0.64100400  0.60960750  1
  Ca  Ca12  1  0.66376550  0.35899600  0.39039250  1
  Ca  Ca13  1  0.91376550  0.39100400  0.14039250  1
  Ca  Ca14  1  0.41376550  0.60899600  0.35960750  1
  Ca  Ca15  1  0.16376550  0.64100400  0.10960750  1
  Pb  Pb16  1  0.75936850  0.08768550  0.93610600  1
  Pb  Pb17  1  0.50936850  0.16231450  0.68610600  1
  Pb  Pb18  1  0.00936850  0.83768550  0.81389400  1
  Pb  Pb19  1  0.25936850  0.91231450  0.56389400  1
  Pb  Pb20  1  0.25936850  0.08768550  0.43610600  1
  Pb  Pb21  1  0.00936850  0.16231450  0.18610600  1
  Pb  Pb22  1  0.50936850  0.83768550  0.31389400  1
  Pb  Pb23  1  0.75936850  0.91231450  0.06389400  1
  Pb  Pb24  1  0.25936850  0.58768550  0.93610600  1
  Pb  Pb25  1  0.00936850  0.66231450  0.68610600  1
  Pb  Pb26  1  0.50936850  0.33768550  0.81389400  1
  Pb  Pb27  1  0.75936850  0.41231450  0.56389400  1
  Pb  Pb28  1  0.75936850  0.58768550  0.43610600  1
  Pb  Pb29  1  0.50936850  0.66231450  0.18610600  1
  Pb  Pb30  1  0.00936850  0.33768550  0.31389400  1
  Pb  Pb31  1  0.25936850  0.41231450  0.06389400  1
  I  I32  1  0.40415300  0.69813050  0.89613050  1
  I  I33  1  0.10530000  0.82421950  0.69134750  1
  I  I34  1  0.10161550  0.82006900  0.51327950  1
  I  I35  1  0.34805850  0.88949400  0.81503750  1
  I  I36  1  0.79659850  0.90691250  0.52767200  1
  I  I37  1  0.55974850  0.99719550  0.90243900  1
  I  I38  1  0.15415300  0.55186950  0.64613050  1
  I  I39  1  0.15415300  0.94813050  0.85386950  1
  I  I40  1  0.05974850  0.00280450  0.59756100  1
  I  I41  1  0.35530000  0.07421950  0.55865250  1
  I  I42  1  0.35161550  0.07006900  0.73672050  1
  I  I43  1  0.29659850  0.09308750  0.97232800  1
  I  I44  1  0.84805850  0.11050600  0.68496250  1
  I  I45  1  0.09805850  0.13949400  0.93496250  1
  I  I46  1  0.04659850  0.15691250  0.72232800  1
  I  I47  1  0.60161550  0.17993100  0.98672050  1
  I  I48  1  0.60530000  0.17578050  0.80865250  1
  I  I49  1  0.30974850  0.24719550  0.84756100  1
  I  I50  1  0.40415300  0.80186950  0.60386950  1
  I  I51  1  0.30974850  0.25280450  0.65243900  1
  I  I52  1  0.54659850  0.84308750  0.77767200  1
  I  I53  1  0.09805850  0.36050600  0.56503750  1
  I  I54  1  0.85161550  0.92993100  0.76327950  1
  I  I55  1  0.85530000  0.92578050  0.94134750  1
  I  I56  1  0.90415300  0.69813050  0.39613050  1
  I  I57  1  0.60530000  0.82421950  0.19134750  1
  I  I58  1  0.60161550  0.82006900  0.01327950  1
  I  I59  1  0.84805850  0.88949400  0.31503750  1
  I  I60  1  0.29659850  0.90691250  0.02767200  1
  I  I61  1  0.05974850  0.99719550  0.40243900  1
  I  I62  1  0.65415300  0.55186950  0.14613050  1
  I  I63  1  0.65415300  0.94813050  0.35386950  1
  I  I64  1  0.55974850  0.00280450  0.09756100  1
  I  I65  1  0.85530000  0.07421950  0.05865250  1
  I  I66  1  0.85161550  0.07006900  0.23672050  1
  I  I67  1  0.79659850  0.09308750  0.47232800  1
  I  I68  1  0.34805850  0.11050600  0.18496250  1
  I  I69  1  0.59805850  0.13949400  0.43496250  1
  I  I70  1  0.54659850  0.15691250  0.22232800  1
  I  I71  1  0.10161550  0.17993100  0.48672050  1
  I  I72  1  0.10530000  0.17578050  0.30865250  1
  I  I73  1  0.80974850  0.24719550  0.34756100  1
  I  I74  1  0.90415300  0.80186950  0.10386950  1
  I  I75  1  0.80974850  0.25280450  0.15243900  1
  I  I76  1  0.04659850  0.84308750  0.27767200  1
  I  I77  1  0.59805850  0.36050600  0.06503750  1
  I  I78  1  0.35161550  0.92993100  0.26327950  1
  I  I79  1  0.35530000  0.92578050  0.44134750  1
  I  I80  1  0.90415300  0.19813050  0.89613050  1
  I  I81  1  0.60530000  0.32421950  0.69134750  1
  I  I82  1  0.60161550  0.32006900  0.51327950  1
  I  I83  1  0.84805850  0.38949400  0.81503750  1
  I  I84  1  0.29659850  0.40691250  0.52767200  1
  I  I85  1  0.05974850  0.49719550  0.90243900  1
  I  I86  1  0.65415300  0.05186950  0.64613050  1
  I  I87  1  0.65415300  0.44813050  0.85386950  1
  I  I88  1  0.55974850  0.50280450  0.59756100  1
  I  I89  1  0.85530000  0.57421950  0.55865250  1
  I  I90  1  0.85161550  0.57006900  0.73672050  1
  I  I91  1  0.79659850  0.59308750  0.97232800  1
  I  I92  1  0.34805850  0.61050600  0.68496250  1
  I  I93  1  0.59805850  0.63949400  0.93496250  1
  I  I94  1  0.54659850  0.65691250  0.72232800  1
  I  I95  1  0.10161550  0.67993100  0.98672050  1
  I  I96  1  0.10530000  0.67578050  0.80865250  1
  I  I97  1  0.80974850  0.74719550  0.84756100  1
  I  I98  1  0.90415300  0.30186950  0.60386950  1
  I  I99  1  0.80974850  0.75280450  0.65243900  1
  I  I100  1  0.04659850  0.34308750  0.77767200  1
  I  I101  1  0.59805850  0.86050600  0.56503750  1
  I  I102  1  0.35161550  0.42993100  0.76327950  1
  I  I103  1  0.35530000  0.42578050  0.94134750  1
  I  I104  1  0.40415300  0.19813050  0.39613050  1
  I  I105  1  0.10530000  0.32421950  0.19134750  1
  I  I106  1  0.10161550  0.32006900  0.01327950  1
  I  I107  1  0.34805850  0.38949400  0.31503750  1
  I  I108  1  0.79659850  0.40691250  0.02767200  1
  I  I109  1  0.55974850  0.49719550  0.40243900  1
  I  I110  1  0.15415300  0.05186950  0.14613050  1
  I  I111  1  0.15415300  0.44813050  0.35386950  1
  I  I112  1  0.05974850  0.50280450  0.09756100  1
  I  I113  1  0.35530000  0.57421950  0.05865250  1
  I  I114  1  0.35161550  0.57006900  0.23672050  1
  I  I115  1  0.29659850  0.59308750  0.47232800  1
  I  I116  1  0.84805850  0.61050600  0.18496250  1
  I  I117  1  0.09805850  0.63949400  0.43496250  1
  I  I118  1  0.04659850  0.65691250  0.22232800  1
  I  I119  1  0.60161550  0.67993100  0.48672050  1
  I  I120  1  0.60530000  0.67578050  0.30865250  1
  I  I121  1  0.30974850  0.74719550  0.34756100  1
  I  I122  1  0.40415300  0.30186950  0.10386950  1
  I  I123  1  0.30974850  0.75280450  0.15243900  1
  I  I124  1  0.54659850  0.34308750  0.27767200  1
  I  I125  1  0.09805850  0.86050600  0.06503750  1
  I  I126  1  0.85161550  0.42993100  0.26327950  1
  I  I127  1  0.85530000  0.42578050  0.44134750  1
