# generated using pymatgen
data_SnH10Cl4O5
_symmetry_space_group_name_H-M   'P 1'
_cell_length_a   12.49116200
_cell_length_b   10.09519600
_cell_length_c   8.77589551
_cell_angle_alpha   90.00000000
_cell_angle_beta   103.34909620
_cell_angle_gamma   90.00000000
_symmetry_Int_Tables_number   1
_chemical_formula_structural   SnH10Cl4O5
_chemical_formula_sum   'Sn4 H40 Cl16 O20'
_cell_volume   1076.74675815
_cell_formula_units_Z   4
loop_
 _symmetry_equiv_pos_site_id
 _symmetry_equiv_pos_as_xyz
  1  'x, y, z'
loop_
 _atom_site_type_symbol
 _atom_site_label
 _atom_site_symmetry_multiplicity
 _atom_site_fract_x
 _atom_site_fract_y
 _atom_site_fract_z
 _atom_site_occupancy
  Sn  Sn0  1  0.50000000  0.24535000  0.75000000  1
  Sn  Sn1  1  0.50000000  0.75465000  0.25000000  1
  Sn  Sn2  1  0.00000000  0.74535000  0.75000000  1
  Sn  Sn3  1  0.00000000  0.25465000  0.25000000  1
  H  H4  1  0.28152000  0.86420900  0.76058100  1
  H  H5  1  0.28152000  0.13579100  0.26058100  1
  H  H6  1  0.40327100  0.81440700  0.77864100  1
  H  H7  1  0.38507300  0.01164100  0.67038200  1
  H  H8  1  0.38769650  0.08653150  0.49802100  1
  H  H9  1  0.40327100  0.18559300  0.27864100  1
  H  H10  1  0.38507300  0.98835900  0.17038200  1
  H  H11  1  0.47528050  0.63298950  0.65985600  1
  H  H12  1  0.52471950  0.63298950  0.84014400  1
  H  H13  1  0.38769650  0.91346850  0.99802100  1
  H  H14  1  0.61230350  0.08653150  0.00197900  1
  H  H15  1  0.47528050  0.36701050  0.15985600  1
  H  H16  1  0.52471950  0.36701050  0.34014400  1
  H  H17  1  0.61492700  0.01164100  0.82961800  1
  H  H18  1  0.59672900  0.81440700  0.72135900  1
  H  H19  1  0.61230350  0.91346850  0.50197900  1
  H  H20  1  0.61492700  0.98835900  0.32961800  1
  H  H21  1  0.59672900  0.18559300  0.22135900  1
  H  H22  1  0.71848000  0.86420900  0.73941900  1
  H  H23  1  0.71848000  0.13579100  0.23941900  1
  H  H24  1  0.78152000  0.36420900  0.76058100  1
  H  H25  1  0.78152000  0.63579100  0.26058100  1
  H  H26  1  0.90327100  0.31440700  0.77864100  1
  H  H27  1  0.88507300  0.51164100  0.67038200  1
  H  H28  1  0.88769650  0.58653150  0.49802100  1
  H  H29  1  0.90327100  0.68559300  0.27864100  1
  H  H30  1  0.88507300  0.48835900  0.17038200  1
  H  H31  1  0.97528050  0.13298950  0.65985600  1
  H  H32  1  0.02471950  0.13298950  0.84014400  1
  H  H33  1  0.88769650  0.41346850  0.99802100  1
  H  H34  1  0.11230350  0.58653150  0.00197900  1
  H  H35  1  0.97528050  0.86701050  0.15985600  1
  H  H36  1  0.02471950  0.86701050  0.34014400  1
  H  H37  1  0.11492700  0.51164100  0.82961800  1
  H  H38  1  0.09672900  0.31440700  0.72135900  1
  H  H39  1  0.11230350  0.41346850  0.50197900  1
  H  H40  1  0.11492700  0.48835900  0.32961800  1
  H  H41  1  0.09672900  0.68559300  0.22135900  1
  H  H42  1  0.21848000  0.36420900  0.73941900  1
  H  H43  1  0.21848000  0.63579100  0.23941900  1
  Cl  Cl44  1  0.11202500  0.90082500  0.92939900  1
  Cl  Cl45  1  0.11202500  0.09917500  0.42939900  1
  Cl  Cl46  1  0.36110600  0.22759500  0.90188500  1
  Cl  Cl47  1  0.36110600  0.77240500  0.40188500  1
  Cl  Cl48  1  0.63889400  0.22759500  0.59811500  1
  Cl  Cl49  1  0.63889400  0.77240500  0.09811500  1
  Cl  Cl50  1  0.88797500  0.90082500  0.57060100  1
  Cl  Cl51  1  0.88797500  0.09917500  0.07060100  1
  Cl  Cl52  1  0.61202500  0.40082500  0.92939900  1
  Cl  Cl53  1  0.61202500  0.59917500  0.42939900  1
  Cl  Cl54  1  0.86110600  0.72759500  0.90188500  1
  Cl  Cl55  1  0.86110600  0.27240500  0.40188500  1
  Cl  Cl56  1  0.13889400  0.72759500  0.59811500  1
  Cl  Cl57  1  0.13889400  0.27240500  0.09811500  1
  Cl  Cl58  1  0.38797500  0.40082500  0.57060100  1
  Cl  Cl59  1  0.38797500  0.59917500  0.07060100  1
  O  O60  1  0.35841400  0.89255100  0.79657600  1
  O  O61  1  0.35841400  0.10744900  0.29657600  1
  O  O62  1  0.42029950  0.07963350  0.61361500  1
  O  O63  1  0.50000000  0.69187900  0.75000000  1
  O  O64  1  0.42029950  0.92036650  0.11361500  1
  O  O65  1  0.57970050  0.07963350  0.88638500  1
  O  O66  1  0.50000000  0.30812100  0.25000000  1
  O  O67  1  0.57970050  0.92036650  0.38638500  1
  O  O68  1  0.64158600  0.89255100  0.70342400  1
  O  O69  1  0.64158600  0.10744900  0.20342400  1
  O  O70  1  0.85841400  0.39255100  0.79657600  1
  O  O71  1  0.85841400  0.60744900  0.29657600  1
  O  O72  1  0.92029950  0.57963350  0.61361500  1
  O  O73  1  0.00000000  0.19187900  0.75000000  1
  O  O74  1  0.92029950  0.42036650  0.11361500  1
  O  O75  1  0.07970050  0.57963350  0.88638500  1
  O  O76  1  0.00000000  0.80812100  0.25000000  1
  O  O77  1  0.07970050  0.42036650  0.38638500  1
  O  O78  1  0.14158600  0.39255100  0.70342400  1
  O  O79  1  0.14158600  0.60744900  0.20342400  1
