# generated using pymatgen
data_Fe5Cu(PO4)6
_symmetry_space_group_name_H-M   'P 1'
_cell_length_a   8.65545007
_cell_length_b   8.65545007
_cell_length_c   20.21145305
_cell_angle_alpha   90.00000000
_cell_angle_beta   90.00000000
_cell_angle_gamma   120.00000000
_symmetry_Int_Tables_number   1
_chemical_formula_structural   Fe5Cu(PO4)6
_chemical_formula_sum   'Fe15 Cu3 P18 O72'
_cell_volume   1311.31635967
_cell_formula_units_Z   3
loop_
 _symmetry_equiv_pos_site_id
 _symmetry_equiv_pos_as_xyz
  1  'x, y, z'
loop_
 _atom_site_type_symbol
 _atom_site_label
 _atom_site_symmetry_multiplicity
 _atom_site_fract_x
 _atom_site_fract_y
 _atom_site_fract_z
 _atom_site_occupancy
  Fe  Fe0  1  0.33333333  0.66666667  0.66571067  1
  Fe  Fe1  1  0.33333333  0.66666667  0.01994167  1
  Fe  Fe2  1  0.33333333  0.66666667  0.16617567  1
  Fe  Fe3  1  0.33333333  0.66666667  0.81212167  1
  Fe  Fe4  1  0.33333333  0.66666667  0.31276767  1
  Fe  Fe5  1  0.00000000  0.00000000  0.99904400  1
  Fe  Fe6  1  0.00000000  0.00000000  0.35327500  1
  Fe  Fe7  1  0.00000000  0.00000000  0.49950900  1
  Fe  Fe8  1  0.00000000  0.00000000  0.14545500  1
  Fe  Fe9  1  0.00000000  0.00000000  0.64610100  1
  Fe  Fe10  1  0.66666667  0.33333333  0.33237733  1
  Fe  Fe11  1  0.66666667  0.33333333  0.68660833  1
  Fe  Fe12  1  0.66666667  0.33333333  0.83284233  1
  Fe  Fe13  1  0.66666667  0.33333333  0.47878833  1
  Fe  Fe14  1  0.66666667  0.33333333  0.97943433  1
  Cu  Cu15  1  0.33333333  0.66666667  0.52035667  1
  Cu  Cu16  1  0.00000000  0.00000000  0.85369000  1
  Cu  Cu17  1  0.66666667  0.33333333  0.18702333  1
  P  P18  1  0.66572900  0.62994300  0.08409900  1
  P  P19  1  0.96421400  0.33427100  0.08409900  1
  P  P20  1  0.37005700  0.03578600  0.08409900  1
  P  P21  1  0.29927167  0.29825733  0.24921333  1
  P  P22  1  0.70174267  0.00101433  0.24921333  1
  P  P23  1  0.99898567  0.70072833  0.24921333  1
  P  P24  1  0.33239567  0.96327633  0.41743233  1
  P  P25  1  0.63088067  0.66760433  0.41743233  1
  P  P26  1  0.03672367  0.36911933  0.41743233  1
  P  P27  1  0.96593833  0.63159067  0.58254667  1
  P  P28  1  0.36840933  0.33434767  0.58254667  1
  P  P29  1  0.66565233  0.03406167  0.58254667  1
  P  P30  1  0.99906233  0.29660967  0.75076567  1
  P  P31  1  0.29754733  0.00093767  0.75076567  1
  P  P32  1  0.70339033  0.70245267  0.75076567  1
  P  P33  1  0.63260500  0.96492400  0.91588000  1
  P  P34  1  0.03507600  0.66768100  0.91588000  1
  P  P35  1  0.33231900  0.36739500  0.91588000  1
  O  O36  1  0.53721200  0.68035600  0.35543900  1
  O  O37  1  0.14314400  0.46278800  0.35543900  1
  O  O38  1  0.31964400  0.85685600  0.35543900  1
  O  O39  1  0.83260700  0.82091300  0.07150900  1
  O  O40  1  0.67160867  0.53971233  0.14784333  1
  O  O41  1  0.50151367  0.65940433  0.09411633  1
  O  O42  1  0.98830600  0.16739300  0.07150900  1
  O  O43  1  0.15789067  0.49848633  0.09411633  1
  O  O44  1  0.20567667  0.19260033  0.18735533  1
  O  O45  1  0.34059567  0.84210933  0.09411633  1
  O  O46  1  0.48848800  0.32114200  0.26193200  1
  O  O47  1  0.80739967  0.01307633  0.18735533  1
  O  O48  1  0.86810367  0.32839133  0.14784333  1
  O  O49  1  0.17908700  0.01169400  0.07150900  1
  O  O50  1  0.32519233  0.48971667  0.23796667  1
  O  O51  1  0.46028767  0.13189633  0.14784333  1
  O  O52  1  0.51028333  0.83547567  0.23796667  1
  O  O53  1  0.67885800  0.16734600  0.26193200  1
  O  O54  1  0.16452433  0.67480767  0.23796667  1
  O  O55  1  0.98692367  0.79432333  0.18735533  1
  O  O56  1  0.83265400  0.51151200  0.26193200  1
  O  O57  1  0.34454167  0.47278933  0.97817333  1
  O  O58  1  0.52721067  0.87175233  0.97817333  1
  O  O59  1  0.12824767  0.65545833  0.97817333  1
  O  O60  1  0.20387867  0.01368933  0.68877233  1
  O  O61  1  0.80981067  0.79612133  0.68877233  1
  O  O62  1  0.98631067  0.19018933  0.68877233  1
  O  O63  1  0.49927367  0.15424633  0.40484233  1
  O  O64  1  0.33827533  0.87304567  0.48117667  1
  O  O65  1  0.16818033  0.99273767  0.42744967  1
  O  O66  1  0.65497267  0.50072633  0.40484233  1
  O  O67  1  0.82455733  0.83181967  0.42744967  1
  O  O68  1  0.87234333  0.52593367  0.52068867  1
  O  O69  1  0.00726233  0.17544267  0.42744967  1
  O  O70  1  0.15515467  0.65447533  0.59526533  1
  O  O71  1  0.47406633  0.34640967  0.52068867  1
  O  O72  1  0.53477033  0.66172467  0.48117667  1
  O  O73  1  0.84575367  0.34502733  0.40484233  1
  O  O74  1  0.99185900  0.82305000  0.57130000  1
  O  O75  1  0.12695433  0.46522967  0.48117667  1
  O  O76  1  0.17695000  0.16880900  0.57130000  1
  O  O77  1  0.34552467  0.50067933  0.59526533  1
  O  O78  1  0.83119100  0.00814100  0.57130000  1
  O  O79  1  0.65359033  0.12765667  0.52068867  1
  O  O80  1  0.49932067  0.84484533  0.59526533  1
  O  O81  1  0.01120833  0.80612267  0.31150667  1
  O  O82  1  0.19387733  0.20508567  0.31150667  1
  O  O83  1  0.79491433  0.98879167  0.31150667  1
  O  O84  1  0.87054533  0.34702267  0.02210567  1
  O  O85  1  0.47647733  0.12945467  0.02210567  1
  O  O86  1  0.65297733  0.52352267  0.02210567  1
  O  O87  1  0.16594033  0.48757967  0.73817567  1
  O  O88  1  0.00494200  0.20637900  0.81451000  1
  O  O89  1  0.83484700  0.32607100  0.76078300  1
  O  O90  1  0.32163933  0.83405967  0.73817567  1
  O  O91  1  0.49122400  0.16515300  0.76078300  1
  O  O92  1  0.53901000  0.85926700  0.85402200  1
  O  O93  1  0.67392900  0.50877600  0.76078300  1
  O  O94  1  0.82182133  0.98780867  0.92859867  1
  O  O95  1  0.14073300  0.67974300  0.85402200  1
  O  O96  1  0.20143700  0.99505800  0.81451000  1
  O  O97  1  0.51242033  0.67836067  0.73817567  1
  O  O98  1  0.65852567  0.15638333  0.90463333  1
  O  O99  1  0.79362100  0.79856300  0.81451000  1
  O  O100  1  0.84361667  0.50214233  0.90463333  1
  O  O101  1  0.01219133  0.83401267  0.92859867  1
  O  O102  1  0.49785767  0.34147433  0.90463333  1
  O  O103  1  0.32025700  0.46099000  0.85402200  1
  O  O104  1  0.16598733  0.17817867  0.92859867  1
  O  O105  1  0.67787500  0.13945600  0.64484000  1
  O  O106  1  0.86054400  0.53841900  0.64484000  1
  O  O107  1  0.46158100  0.32212500  0.64484000  1
