# generated using pymatgen
data_Na2P2H12O11F2
_symmetry_space_group_name_H-M   'P 1'
_cell_length_a   19.25775219
_cell_length_b   5.38995501
_cell_length_c   12.78599268
_cell_angle_alpha   90.00000000
_cell_angle_beta   109.70002302
_cell_angle_gamma   90.00000000
_symmetry_Int_Tables_number   1
_chemical_formula_structural   Na2P2H12O11F2
_chemical_formula_sum   'Na8 P8 H48 O44 F8'
_cell_volume   1249.48733961
_cell_formula_units_Z   4
loop_
 _symmetry_equiv_pos_site_id
 _symmetry_equiv_pos_as_xyz
  1  'x, y, z'
loop_
 _atom_site_type_symbol
 _atom_site_label
 _atom_site_symmetry_multiplicity
 _atom_site_fract_x
 _atom_site_fract_y
 _atom_site_fract_z
 _atom_site_occupancy
  Na  Na0  1  0.47821747  0.42145484  0.37141077  1
  Na  Na1  1  0.47750888  0.58038203  0.87036676  1
  Na  Na2  1  0.02178253  0.92145484  0.62858923  1
  Na  Na3  1  0.02249112  0.08038203  0.12963324  1
  Na  Na4  1  0.97821747  0.92145484  0.37141077  1
  Na  Na5  1  0.97750888  0.08038203  0.87036676  1
  Na  Na6  1  0.52178253  0.42145484  0.62858923  1
  Na  Na7  1  0.52249112  0.58038203  0.12963324  1
  P  P8  1  0.33648800  0.66189738  0.46920989  1
  P  P9  1  0.33590461  0.34191774  0.96917787  1
  P  P10  1  0.16351200  0.16189738  0.53079011  1
  P  P11  1  0.16409539  0.84191774  0.03082213  1
  P  P12  1  0.83648800  0.16189738  0.46920989  1
  P  P13  1  0.83590461  0.84191774  0.96917787  1
  P  P14  1  0.66351200  0.66189739  0.53079011  1
  P  P15  1  0.66409539  0.34191774  0.03082213  1
  H  H16  1  0.46049781  0.96523453  0.49708052  1
  H  H17  1  0.34855014  0.09471276  0.31164432  1
  H  H18  1  0.41904961  0.13922208  0.73480628  1
  H  H19  1  0.38661401  0.37678858  0.66385375  1
  H  H20  1  0.45811652  0.03775565  0.99123235  1
  H  H21  1  0.34843217  0.77767751  0.69781320  1
  H  H22  1  0.26658886  0.00064139  0.43671642  1
  H  H23  1  0.35071617  0.89719582  0.81199126  1
  H  H24  1  0.41922171  0.86148162  0.23737500  1
  H  H25  1  0.38854727  0.62627045  0.16434808  1
  H  H26  1  0.23341114  0.50064139  0.56328358  1
  H  H27  1  0.15156783  0.27767751  0.30218680  1
  H  H28  1  0.34825613  0.21983856  0.19988653  1
  H  H29  1  0.26716137  0.00112808  0.93666823  1
  H  H30  1  0.11338599  0.87678858  0.33614625  1
  H  H31  1  0.08095039  0.63922208  0.26519372  1
  H  H32  1  0.15144986  0.59471276  0.68835568  1
  H  H33  1  0.23283863  0.50112808  0.06333177  1
  H  H34  1  0.15174387  0.71983856  0.80011347  1
  H  H35  1  0.03950219  0.46523453  0.50291948  1
  H  H36  1  0.11145273  0.12627045  0.83565192  1
  H  H37  1  0.08077829  0.36148162  0.76262500  1
  H  H38  1  0.14928383  0.39719582  0.18800874  1
  H  H39  1  0.04188348  0.53775565  0.00876765  1
  H  H40  1  0.96049781  0.46523453  0.49708052  1
  H  H41  1  0.84855014  0.59471276  0.31164432  1
  H  H42  1  0.91904962  0.63922208  0.73480628  1
  H  H43  1  0.88661401  0.87678858  0.66385375  1
  H  H44  1  0.95811652  0.53775565  0.99123235  1
  H  H45  1  0.84843217  0.27767751  0.69781320  1
  H  H46  1  0.76658886  0.50064139  0.43671642  1
  H  H47  1  0.85071617  0.39719582  0.81199126  1
  H  H48  1  0.91922171  0.36148162  0.23737500  1
  H  H49  1  0.88854727  0.12627045  0.16434808  1
  H  H50  1  0.73341114  0.00064139  0.56328358  1
  H  H51  1  0.65156783  0.77767751  0.30218680  1
  H  H52  1  0.84825613  0.71983856  0.19988653  1
  H  H53  1  0.76716137  0.50112808  0.93666823  1
  H  H54  1  0.61338599  0.37678858  0.33614625  1
  H  H55  1  0.58095038  0.13922208  0.26519372  1
  H  H56  1  0.65144986  0.09471276  0.68835568  1
  H  H57  1  0.73283863  0.00112808  0.06333177  1
  H  H58  1  0.65174387  0.21983856  0.80011347  1
  H  H59  1  0.53950219  0.96523453  0.50291948  1
  H  H60  1  0.61145273  0.62627045  0.83565192  1
  H  H61  1  0.58077829  0.86148162  0.76262500  1
  H  H62  1  0.64928383  0.89719582  0.18800874  1
  H  H63  1  0.54188348  0.03775565  0.00876765  1
  O  O64  1  0.38018869  0.14104728  0.26824813  1
  O  O65  1  0.41560844  0.61823903  0.48172401  1
  O  O66  1  0.43255726  0.30673686  0.71562722  1
  O  O67  1  0.31619895  0.94086636  0.43286616  1
  O  O68  1  0.38105938  0.85733292  0.76640307  1
  O  O69  1  0.41537942  0.38715764  0.98340279  1
  O  O70  1  0.31046891  0.58473896  0.56445879  1
  O  O71  1  0.43396225  0.69607681  0.21785281  1
  O  O72  1  0.31652065  0.06136197  0.93262960  1
  O  O73  1  0.18953109  0.08473896  0.43554121  1
  O  O74  1  0.31020436  0.41599281  0.06486676  1
  O  O75  1  0.18380105  0.44086636  0.56713384  1
  O  O76  1  0.06744274  0.80673686  0.28437278  1
  O  O77  1  0.18979564  0.91599281  0.93513324  1
  O  O78  1  0.08439156  0.11823903  0.51827599  1
  O  O79  1  0.11981131  0.64104728  0.73175187  1
  O  O80  1  0.18347935  0.56136197  0.06737040  1
  O  O81  1  0.06603775  0.19607681  0.78214719  1
  O  O82  1  0.00000000  0.58303455  0.50000000  1
  O  O83  1  0.08462058  0.88715764  0.01659721  1
  O  O84  1  0.11894062  0.35733292  0.23359693  1
  O  O85  1  0.50000000  0.91977254  0.00000000  1
  O  O86  1  0.88018869  0.64104728  0.26824813  1
  O  O87  1  0.91560844  0.11823903  0.48172401  1
  O  O88  1  0.93255726  0.80673686  0.71562722  1
  O  O89  1  0.81619895  0.44086636  0.43286616  1
  O  O90  1  0.88105938  0.35733292  0.76640307  1
  O  O91  1  0.91537942  0.88715764  0.98340279  1
  O  O92  1  0.81046891  0.08473896  0.56445879  1
  O  O93  1  0.93396225  0.19607681  0.21785281  1
  O  O94  1  0.81652065  0.56136197  0.93262960  1
  O  O95  1  0.68953109  0.58473896  0.43554121  1
  O  O96  1  0.81020436  0.91599281  0.06486676  1
  O  O97  1  0.68380105  0.94086636  0.56713384  1
  O  O98  1  0.56744274  0.30673686  0.28437278  1
  O  O99  1  0.68979564  0.41599281  0.93513324  1
  O  O100  1  0.58439156  0.61823903  0.51827599  1
  O  O101  1  0.61981131  0.14104728  0.73175187  1
  O  O102  1  0.68347935  0.06136197  0.06737040  1
  O  O103  1  0.56603775  0.69607681  0.78214719  1
  O  O104  1  0.50000000  0.08303455  0.50000000  1
  O  O105  1  0.58462058  0.38715764  0.01659721  1
  O  O106  1  0.61894062  0.85733292  0.23359693  1
  O  O107  1  0.00000000  0.41977254  0.00000000  1
  F  F108  1  0.28576629  0.51208325  0.36309327  1
  F  F109  1  0.28591872  0.49274245  0.86259126  1
  F  F110  1  0.21423371  0.01208325  0.63690673  1
  F  F111  1  0.21408128  0.99274245  0.13740874  1
  F  F112  1  0.78576629  0.01208325  0.36309327  1
  F  F113  1  0.78591872  0.99274245  0.86259126  1
  F  F114  1  0.71423371  0.51208325  0.63690673  1
  F  F115  1  0.71408128  0.49274245  0.13740874  1
