# generated using pymatgen
data_Tm3TaO7
_symmetry_space_group_name_H-M   'P 1'
_cell_length_a   7.38095400
_cell_length_b   7.48660500
_cell_length_c   10.45799900
_cell_angle_alpha   90.00000000
_cell_angle_beta   90.00000000
_cell_angle_gamma   90.00000000
_symmetry_Int_Tables_number   1
_chemical_formula_structural   Tm3TaO7
_chemical_formula_sum   'Tm12 Ta4 O28'
_cell_volume   577.89111145
_cell_formula_units_Z   4
loop_
 _symmetry_equiv_pos_site_id
 _symmetry_equiv_pos_as_xyz
  1  'x, y, z'
loop_
 _atom_site_type_symbol
 _atom_site_label
 _atom_site_symmetry_multiplicity
 _atom_site_fract_x
 _atom_site_fract_y
 _atom_site_fract_z
 _atom_site_occupancy
  Tm  Tm0  1  0.01490000  0.79714900  0.75000000  1
  Tm  Tm1  1  0.25244200  0.96991900  0.48024500  1
  Tm  Tm2  1  0.25244200  0.96991900  0.01975500  1
  Tm  Tm3  1  0.24755800  0.46991900  0.98024500  1
  Tm  Tm4  1  0.24755800  0.46991900  0.51975500  1
  Tm  Tm5  1  0.48510000  0.29714900  0.25000000  1
  Tm  Tm6  1  0.51490000  0.70285100  0.75000000  1
  Tm  Tm7  1  0.75244200  0.53008100  0.48024500  1
  Tm  Tm8  1  0.75244200  0.53008100  0.01975500  1
  Tm  Tm9  1  0.74755800  0.03008100  0.98024500  1
  Tm  Tm10  1  0.74755800  0.03008100  0.51975500  1
  Tm  Tm11  1  0.98510000  0.20285100  0.25000000  1
  Ta  Ta12  1  0.99829800  0.74857200  0.25000000  1
  Ta  Ta13  1  0.50170200  0.24857200  0.75000000  1
  Ta  Ta14  1  0.49829800  0.75142800  0.25000000  1
  Ta  Ta15  1  0.00170200  0.25142800  0.75000000  1
  O  O16  1  0.03755100  0.04484300  0.87629000  1
  O  O17  1  0.03755100  0.04484300  0.62371000  1
  O  O18  1  0.04003900  0.58320700  0.38943400  1
  O  O19  1  0.04003900  0.58320700  0.11056600  1
  O  O20  1  0.24931800  0.33982300  0.75000000  1
  O  O21  1  0.25630100  0.73250600  0.88419400  1
  O  O22  1  0.25630100  0.73250600  0.61580600  1
  O  O23  1  0.24369900  0.23250600  0.38419400  1
  O  O24  1  0.24369900  0.23250600  0.11580600  1
  O  O25  1  0.25068200  0.83982300  0.25000000  1
  O  O26  1  0.45996100  0.08320700  0.88943400  1
  O  O27  1  0.45996100  0.08320700  0.61056600  1
  O  O28  1  0.46244900  0.54484300  0.37629000  1
  O  O29  1  0.46244900  0.54484300  0.12371000  1
  O  O30  1  0.53755100  0.45515700  0.87629000  1
  O  O31  1  0.53755100  0.45515700  0.62371000  1
  O  O32  1  0.54003900  0.91679300  0.38943400  1
  O  O33  1  0.54003900  0.91679300  0.11056600  1
  O  O34  1  0.74931800  0.16017700  0.75000000  1
  O  O35  1  0.75630100  0.76749400  0.88419400  1
  O  O36  1  0.75630100  0.76749400  0.61580600  1
  O  O37  1  0.74369900  0.26749400  0.38419400  1
  O  O38  1  0.74369900  0.26749400  0.11580600  1
  O  O39  1  0.75068200  0.66017700  0.25000000  1
  O  O40  1  0.95996100  0.41679300  0.88943400  1
  O  O41  1  0.95996100  0.41679300  0.61056600  1
  O  O42  1  0.96244900  0.95515700  0.37629000  1
  O  O43  1  0.96244900  0.95515700  0.12371000  1
