# generated using pymatgen
data_V3Cr2Sb3O16
_symmetry_space_group_name_H-M   'P 1'
_cell_length_a   10.63424800
_cell_length_b   6.05962000
_cell_length_c   9.11469822
_cell_angle_alpha   90.00000000
_cell_angle_beta   90.02964518
_cell_angle_gamma   90.00000000
_symmetry_Int_Tables_number   1
_chemical_formula_structural   V3Cr2Sb3O16
_chemical_formula_sum   'V6 Cr4 Sb6 O32'
_cell_volume   587.34653434
_cell_formula_units_Z   2
loop_
 _symmetry_equiv_pos_site_id
 _symmetry_equiv_pos_as_xyz
  1  'x, y, z'
loop_
 _atom_site_type_symbol
 _atom_site_label
 _atom_site_symmetry_multiplicity
 _atom_site_fract_x
 _atom_site_fract_y
 _atom_site_fract_z
 _atom_site_occupancy
  V  V0  1  0.83168100  0.00000000  0.20778100  1
  V  V1  1  0.91651950  0.74979750  0.70867100  1
  V  V2  1  0.91651950  0.25020250  0.70867100  1
  V  V3  1  0.33168100  0.50000000  0.20778100  1
  V  V4  1  0.41651950  0.24979750  0.70867100  1
  V  V5  1  0.41651950  0.75020250  0.70867100  1
  Cr  Cr6  1  0.66949700  0.00000000  0.48933200  1
  Cr  Cr7  1  0.83876400  0.50000000  0.98461400  1
  Cr  Cr8  1  0.16949700  0.50000000  0.48933200  1
  Cr  Cr9  1  0.33876400  0.00000000  0.98461400  1
  Sb  Sb10  1  0.58251950  0.24847350  0.21134700  1
  Sb  Sb11  1  0.58251950  0.75152650  0.21134700  1
  Sb  Sb12  1  0.66861800  0.50000000  0.70964900  1
  Sb  Sb13  1  0.08251950  0.74847350  0.21134700  1
  Sb  Sb14  1  0.08251950  0.25152650  0.21134700  1
  Sb  Sb15  1  0.16861800  0.00000000  0.70964900  1
  O  O16  1  0.58245250  0.24706850  0.60656100  1
  O  O17  1  0.52128400  0.00000000  0.34642700  1
  O  O18  1  0.65958500  0.00000000  0.09097500  1
  O  O19  1  0.50282000  0.50000000  0.32155900  1
  O  O20  1  0.99947700  0.00000000  0.81237600  1
  O  O21  1  0.58245250  0.75293150  0.60656100  1
  O  O22  1  0.73549350  0.21577550  0.33809300  1
  O  O23  1  0.73549350  0.78422450  0.33809300  1
  O  O24  1  0.66600600  0.50000000  0.09945200  1
  O  O25  1  0.83455800  0.00000000  0.61101700  1
  O  O26  1  0.76613750  0.71458950  0.83890800  1
  O  O27  1  0.76613750  0.28541050  0.83890800  1
  O  O28  1  0.83323200  0.50000000  0.59547500  1
  O  O29  1  0.91831850  0.74840750  0.10579200  1
  O  O30  1  0.97120600  0.50000000  0.82836000  1
  O  O31  1  0.91831850  0.25159250  0.10579200  1
  O  O32  1  0.08245250  0.74706850  0.60656100  1
  O  O33  1  0.02128400  0.50000000  0.34642700  1
  O  O34  1  0.15958500  0.50000000  0.09097500  1
  O  O35  1  0.00282000  0.00000000  0.32155900  1
  O  O36  1  0.49947700  0.50000000  0.81237600  1
  O  O37  1  0.08245250  0.25293150  0.60656100  1
  O  O38  1  0.23549350  0.71577550  0.33809300  1
  O  O39  1  0.23549350  0.28422450  0.33809300  1
  O  O40  1  0.16600600  0.00000000  0.09945200  1
  O  O41  1  0.33455800  0.50000000  0.61101700  1
  O  O42  1  0.26613750  0.21458950  0.83890800  1
  O  O43  1  0.26613750  0.78541050  0.83890800  1
  O  O44  1  0.33323200  0.00000000  0.59547500  1
  O  O45  1  0.41831850  0.24840750  0.10579200  1
  O  O46  1  0.47120600  0.00000000  0.82836000  1
  O  O47  1  0.41831850  0.75159250  0.10579200  1
