# generated using pymatgen
data_NaVO3
_symmetry_space_group_name_H-M   'P 1'
_cell_length_a   6.22867200
_cell_length_b   9.31539600
_cell_length_c   10.90171400
_cell_angle_alpha   90.00000000
_cell_angle_beta   90.00000000
_cell_angle_gamma   90.00000000
_symmetry_Int_Tables_number   1
_chemical_formula_structural   NaVO3
_chemical_formula_sum   'Na8 V8 O24'
_cell_volume   632.54520460
_cell_formula_units_Z   8
loop_
 _symmetry_equiv_pos_site_id
 _symmetry_equiv_pos_as_xyz
  1  'x, y, z'
loop_
 _atom_site_type_symbol
 _atom_site_label
 _atom_site_symmetry_multiplicity
 _atom_site_fract_x
 _atom_site_fract_y
 _atom_site_fract_z
 _atom_site_occupancy
  Na  Na0  1  0.25000000  0.20718900  0.50000000  1
  Na  Na1  1  0.25000000  0.79281100  0.50000000  1
  Na  Na2  1  0.75000000  0.79281100  0.50000000  1
  Na  Na3  1  0.75000000  0.20718900  0.50000000  1
  Na  Na4  1  0.75000000  0.70718900  0.00000000  1
  Na  Na5  1  0.75000000  0.29281100  0.00000000  1
  Na  Na6  1  0.25000000  0.29281100  0.00000000  1
  Na  Na7  1  0.25000000  0.70718900  0.00000000  1
  V  V8  1  0.00000000  0.91545100  0.21992400  1
  V  V9  1  0.50000000  0.08454900  0.21992400  1
  V  V10  1  0.50000000  0.91545100  0.78007600  1
  V  V11  1  0.00000000  0.08454900  0.78007600  1
  V  V12  1  0.50000000  0.41545100  0.71992400  1
  V  V13  1  0.00000000  0.58454900  0.71992400  1
  V  V14  1  0.00000000  0.41545100  0.28007600  1
  V  V15  1  0.50000000  0.58454900  0.28007600  1
  O  O16  1  0.75000000  0.00000000  0.16893200  1
  O  O17  1  0.25000000  0.00000000  0.16893200  1
  O  O18  1  0.00000000  0.25390400  0.34609300  1
  O  O19  1  0.00000000  0.89348100  0.37303100  1
  O  O20  1  0.50000000  0.74609600  0.34609300  1
  O  O21  1  0.50000000  0.10651900  0.37303100  1
  O  O22  1  0.50000000  0.89348100  0.62696900  1
  O  O23  1  0.50000000  0.25390400  0.65390700  1
  O  O24  1  0.00000000  0.10651900  0.62696900  1
  O  O25  1  0.00000000  0.74609600  0.65390700  1
  O  O26  1  0.75000000  0.00000000  0.83106800  1
  O  O27  1  0.25000000  0.00000000  0.83106800  1
  O  O28  1  0.25000000  0.50000000  0.66893200  1
  O  O29  1  0.75000000  0.50000000  0.66893200  1
  O  O30  1  0.50000000  0.75390400  0.84609300  1
  O  O31  1  0.50000000  0.39348100  0.87303100  1
  O  O32  1  0.00000000  0.24609600  0.84609300  1
  O  O33  1  0.00000000  0.60651900  0.87303100  1
  O  O34  1  0.00000000  0.39348100  0.12696900  1
  O  O35  1  0.00000000  0.75390400  0.15390700  1
  O  O36  1  0.50000000  0.60651900  0.12696900  1
  O  O37  1  0.50000000  0.24609600  0.15390700  1
  O  O38  1  0.25000000  0.50000000  0.33106800  1
  O  O39  1  0.75000000  0.50000000  0.33106800  1
