# generated using pymatgen
data_Cr3Sn3(SbO8)2
_symmetry_space_group_name_H-M   'P 1'
_cell_length_a   6.18079300
_cell_length_b   6.18601368
_cell_length_c   9.32276316
_cell_angle_alpha   89.98937070
_cell_angle_beta   90.78280181
_cell_angle_gamma   119.80195624
_symmetry_Int_Tables_number   1
_chemical_formula_structural   Cr3Sn3(SbO8)2
_chemical_formula_sum   'Cr3 Sn3 Sb2 O16'
_cell_volume   309.27190806
_cell_formula_units_Z   1
loop_
 _symmetry_equiv_pos_site_id
 _symmetry_equiv_pos_as_xyz
  1  'x, y, z'
loop_
 _atom_site_type_symbol
 _atom_site_label
 _atom_site_symmetry_multiplicity
 _atom_site_fract_x
 _atom_site_fract_y
 _atom_site_fract_z
 _atom_site_occupancy
  Cr  Cr0  1  0.65575700  0.82838000  0.78957900  1
  Cr  Cr1  1  0.82669300  0.16909000  0.28280300  1
  Cr  Cr2  1  0.82855500  0.65899700  0.29210900  1
  Sn  Sn3  1  0.16394500  0.33536800  0.78771700  1
  Sn  Sn4  1  0.16459600  0.82972900  0.78805800  1
  Sn  Sn5  1  0.33534400  0.16866700  0.29660100  1
  Sb  Sb6  1  0.34431200  0.67317800  0.50639000  1
  Sb  Sb7  1  0.67494400  0.33892500  0.01164900  1
  O  O8  1  0.16835900  0.34590900  0.39973000  1
  O  O9  1  0.04481200  0.52349500  0.64606400  1
  O  O10  1  0.33642200  0.66804900  0.90060100  1
  O  O11  1  0.98818500  0.99448700  0.69179200  1
  O  O12  1  0.98262600  0.99928900  0.20522900  1
  O  O13  1  0.16987400  0.82733100  0.40014100  1
  O  O14  1  0.48254500  0.52803000  0.65595600  1
  O  O15  1  0.48195500  0.95476200  0.65647300  1
  O  O16  1  0.34409800  0.17197600  0.90477400  1
  O  O17  1  0.65647100  0.83089000  0.39417100  1
  O  O18  1  0.53592900  0.05030400  0.15695400  1
  O  O19  1  0.52916400  0.47681700  0.15715500  1
  O  O20  1  0.68367100  0.33061400  0.39439400  1
  O  O21  1  0.82469900  0.17073800  0.90007700  1
  O  O22  1  0.95148200  0.46886500  0.16468100  1
  O  O23  1  0.82556400  0.65591400  0.90118300  1
