# generated using pymatgen
data_Na7SbO6
_symmetry_space_group_name_H-M   'P 1'
_cell_length_a   6.50518455
_cell_length_b   6.50518455
_cell_length_c   15.52034896
_cell_angle_alpha   90.00000000
_cell_angle_beta   90.00000000
_cell_angle_gamma   120.00000000
_symmetry_Int_Tables_number   1
_chemical_formula_structural   Na7SbO6
_chemical_formula_sum   'Na21 Sb3 O18'
_cell_volume   568.78922017
_cell_formula_units_Z   3
loop_
 _symmetry_equiv_pos_site_id
 _symmetry_equiv_pos_as_xyz
  1  'x, y, z'
loop_
 _atom_site_type_symbol
 _atom_site_label
 _atom_site_symmetry_multiplicity
 _atom_site_fract_x
 _atom_site_fract_y
 _atom_site_fract_z
 _atom_site_occupancy
  Na  Na0  1  0.00841400  0.39928800  0.10576800  1
  Na  Na1  1  0.25270267  0.27267133  0.22988833  1
  Na  Na2  1  0.01996867  0.74729733  0.22988833  1
  Na  Na3  1  0.33333333  0.66666667  0.32227867  1
  Na  Na4  1  0.39087400  0.99158600  0.10576800  1
  Na  Na5  1  0.60071200  0.60912600  0.10576800  1
  Na  Na6  1  0.72732867  0.98003133  0.22988833  1
  Na  Na7  1  0.67508067  0.73262133  0.43910133  1
  Na  Na8  1  0.91936933  0.60600467  0.56322167  1
  Na  Na9  1  0.68663533  0.08063067  0.56322167  1
  Na  Na10  1  0.00000000  0.00000000  0.65561200  1
  Na  Na11  1  0.05754067  0.32491933  0.43910133  1
  Na  Na12  1  0.26737867  0.94245933  0.43910133  1
  Na  Na13  1  0.39399533  0.31336467  0.56322167  1
  Na  Na14  1  0.34174733  0.06595467  0.77243467  1
  Na  Na15  1  0.58603600  0.93933800  0.89655500  1
  Na  Na16  1  0.35330200  0.41396400  0.89655500  1
  Na  Na17  1  0.66666667  0.33333333  0.98894533  1
  Na  Na18  1  0.72420733  0.65825267  0.77243467  1
  Na  Na19  1  0.93404533  0.27579267  0.77243467  1
  Na  Na20  1  0.06066200  0.64669800  0.89655500  1
  Sb  Sb21  1  0.33333333  0.66666667  0.66762067  1
  Sb  Sb22  1  0.00000000  0.00000000  0.00095400  1
  Sb  Sb23  1  0.66666667  0.33333333  0.33428733  1
  O  O24  1  0.95299967  0.37031533  0.26019033  1
  O  O25  1  0.26254133  0.26248667  0.07527867  1
  O  O26  1  0.99994533  0.73745867  0.07527867  1
  O  O27  1  0.62968467  0.58268433  0.26019033  1
  O  O28  1  0.41731567  0.04700033  0.26019033  1
  O  O29  1  0.73751333  0.00005467  0.07527867  1
  O  O30  1  0.61966633  0.70364867  0.59352367  1
  O  O31  1  0.92920800  0.59582000  0.40861200  1
  O  O32  1  0.66661200  0.07079200  0.40861200  1
  O  O33  1  0.29635133  0.91601767  0.59352367  1
  O  O34  1  0.08398233  0.38033367  0.59352367  1
  O  O35  1  0.40418000  0.33338800  0.40861200  1
  O  O36  1  0.28633300  0.03698200  0.92685700  1
  O  O37  1  0.59587467  0.92915333  0.74194533  1
  O  O38  1  0.33327867  0.40412533  0.74194533  1
  O  O39  1  0.96301800  0.24935100  0.92685700  1
  O  O40  1  0.75064900  0.71366700  0.92685700  1
  O  O41  1  0.07084667  0.66672133  0.74194533  1
