# generated using pymatgen
data_LiFeSiO4
_symmetry_space_group_name_H-M   'P 1'
_cell_length_a   5.48257900
_cell_length_b   8.25959600
_cell_length_c   6.23686900
_cell_angle_alpha   90.00000000
_cell_angle_beta   90.00000000
_cell_angle_gamma   90.00000000
_symmetry_Int_Tables_number   1
_chemical_formula_structural   LiFeSiO4
_chemical_formula_sum   'Li4 Fe4 Si4 O16'
_cell_volume   282.42967464
_cell_formula_units_Z   4
loop_
 _symmetry_equiv_pos_site_id
 _symmetry_equiv_pos_as_xyz
  1  'x, y, z'
loop_
 _atom_site_type_symbol
 _atom_site_label
 _atom_site_symmetry_multiplicity
 _atom_site_fract_x
 _atom_site_fract_y
 _atom_site_fract_z
 _atom_site_occupancy
  Li  Li0  1  0.00000000  0.17021400  0.75000000  1
  Li  Li1  1  0.00000000  0.82978600  0.25000000  1
  Li  Li2  1  0.50000000  0.67021400  0.75000000  1
  Li  Li3  1  0.50000000  0.32978600  0.25000000  1
  Fe  Fe4  1  0.00000000  0.50000000  0.00000000  1
  Fe  Fe5  1  0.00000000  0.50000000  0.50000000  1
  Fe  Fe6  1  0.50000000  0.00000000  0.00000000  1
  Fe  Fe7  1  0.50000000  0.00000000  0.50000000  1
  Si  Si8  1  0.00000000  0.15338900  0.25000000  1
  Si  Si9  1  0.00000000  0.84661100  0.75000000  1
  Si  Si10  1  0.50000000  0.65338900  0.25000000  1
  Si  Si11  1  0.50000000  0.34661100  0.75000000  1
  O  O12  1  0.74070550  0.52682650  0.25000000  1
  O  O13  1  0.74070550  0.47317350  0.75000000  1
  O  O14  1  0.25929450  0.52682650  0.25000000  1
  O  O15  1  0.25929450  0.47317350  0.75000000  1
  O  O16  1  0.00000000  0.26508100  0.03572800  1
  O  O17  1  0.00000000  0.73491900  0.53572800  1
  O  O18  1  0.00000000  0.26508100  0.46427200  1
  O  O19  1  0.00000000  0.73491900  0.96427200  1
  O  O20  1  0.24070550  0.02682650  0.25000000  1
  O  O21  1  0.24070550  0.97317350  0.75000000  1
  O  O22  1  0.75929450  0.02682650  0.25000000  1
  O  O23  1  0.75929450  0.97317350  0.75000000  1
  O  O24  1  0.50000000  0.76508100  0.03572800  1
  O  O25  1  0.50000000  0.23491900  0.53572800  1
  O  O26  1  0.50000000  0.76508100  0.46427200  1
  O  O27  1  0.50000000  0.23491900  0.96427200  1
