# generated using pymatgen
data_LiV2(CO3)4
_symmetry_space_group_name_H-M   'P 1'
_cell_length_a   8.64225989
_cell_length_b   8.68531774
_cell_length_c   6.07767023
_cell_angle_alpha   90.00000000
_cell_angle_beta   108.23284602
_cell_angle_gamma   90.00000000
_symmetry_Int_Tables_number   1
_chemical_formula_structural   LiV2(CO3)4
_chemical_formula_sum   'Li2 V4 C8 O24'
_cell_volume   433.29039141
_cell_formula_units_Z   2
loop_
 _symmetry_equiv_pos_site_id
 _symmetry_equiv_pos_as_xyz
  1  'x, y, z'
loop_
 _atom_site_type_symbol
 _atom_site_label
 _atom_site_symmetry_multiplicity
 _atom_site_fract_x
 _atom_site_fract_y
 _atom_site_fract_z
 _atom_site_occupancy
  Li  Li0  1  0.50000000  0.90061250  0.50000000  1
  Li  Li1  1  0.00000000  0.40061250  0.50000000  1
  V  V2  1  0.50000000  0.30330050  0.50000000  1
  V  V3  1  0.50000000  0.69277750  0.00000000  1
  V  V4  1  0.00000000  0.80330050  0.50000000  1
  V  V5  1  0.00000000  0.19277750  0.00000000  1
  C  C6  1  0.79140950  0.09514850  0.54735300  1
  C  C7  1  0.20859050  0.09514850  0.45264700  1
  C  C8  1  0.78431150  0.90666450  0.03858400  1
  C  C9  1  0.21568850  0.90666450  0.96141600  1
  C  C10  1  0.29140950  0.59514850  0.54735300  1
  C  C11  1  0.70859050  0.59514850  0.45264700  1
  C  C12  1  0.28431150  0.40666450  0.03858400  1
  C  C13  1  0.71568850  0.40666450  0.96141600  1
  O  O14  1  0.61516000  0.30910800  0.81736700  1
  O  O15  1  0.38484000  0.30910800  0.18263300  1
  O  O16  1  0.83300300  0.04161850  0.01736200  1
  O  O17  1  0.16699700  0.04161850  0.98263800  1
  O  O18  1  0.83735750  0.95525850  0.53657900  1
  O  O19  1  0.16264250  0.95525850  0.46342100  1
  O  O20  1  0.63615200  0.12147500  0.45735450  1
  O  O21  1  0.36384800  0.12147500  0.54264550  1
  O  O22  1  0.64089350  0.86289300  0.92281250  1
  O  O23  1  0.35910650  0.86289300  0.07718750  1
  O  O24  1  0.60941450  0.70370700  0.34991950  1
  O  O25  1  0.39058550  0.70370700  0.65008050  1
  O  O26  1  0.11516000  0.80910800  0.81736700  1
  O  O27  1  0.88484000  0.80910800  0.18263300  1
  O  O28  1  0.33300300  0.54161850  0.01736200  1
  O  O29  1  0.66699700  0.54161850  0.98263800  1
  O  O30  1  0.33735750  0.45525850  0.53657900  1
  O  O31  1  0.66264250  0.45525850  0.46342100  1
  O  O32  1  0.13615200  0.62147500  0.45735450  1
  O  O33  1  0.86384800  0.62147500  0.54264550  1
  O  O34  1  0.14089350  0.36289300  0.92281250  1
  O  O35  1  0.85910650  0.36289300  0.07718750  1
  O  O36  1  0.10941450  0.20370700  0.34991950  1
  O  O37  1  0.89058550  0.20370700  0.65008050  1
