# generated using pymatgen
data_TiMn(PO4)2
_symmetry_space_group_name_H-M   'P 1'
_cell_length_a   8.69683392
_cell_length_b   8.69683392
_cell_length_c   21.24247445
_cell_angle_alpha   90.00000000
_cell_angle_beta   90.00000000
_cell_angle_gamma   120.00000000
_symmetry_Int_Tables_number   1
_chemical_formula_structural   TiMn(PO4)2
_chemical_formula_sum   'Ti9 Mn9 P18 O72'
_cell_volume   1391.41951359
_cell_formula_units_Z   9
loop_
 _symmetry_equiv_pos_site_id
 _symmetry_equiv_pos_as_xyz
  1  'x, y, z'
loop_
 _atom_site_type_symbol
 _atom_site_label
 _atom_site_symmetry_multiplicity
 _atom_site_fract_x
 _atom_site_fract_y
 _atom_site_fract_z
 _atom_site_occupancy
  Ti  Ti0  1  0.33333333  0.66666667  0.31295367  1
  Ti  Ti1  1  0.33333333  0.66666667  0.52206267  1
  Ti  Ti2  1  0.33333333  0.66666667  0.01926467  1
  Ti  Ti3  1  0.00000000  0.00000000  0.64628700  1
  Ti  Ti4  1  0.00000000  0.00000000  0.85539600  1
  Ti  Ti5  1  0.00000000  0.00000000  0.35259800  1
  Ti  Ti6  1  0.66666667  0.33333333  0.97962033  1
  Ti  Ti7  1  0.66666667  0.33333333  0.18872933  1
  Ti  Ti8  1  0.66666667  0.33333333  0.68593133  1
  Mn  Mn9  1  0.33333333  0.66666667  0.66966567  1
  Mn  Mn10  1  0.33333333  0.66666667  0.81245267  1
  Mn  Mn11  1  0.33333333  0.66666667  0.16744867  1
  Mn  Mn12  1  0.00000000  0.00000000  0.00299900  1
  Mn  Mn13  1  0.00000000  0.00000000  0.14578600  1
  Mn  Mn14  1  0.00000000  0.00000000  0.50078200  1
  Mn  Mn15  1  0.66666667  0.33333333  0.33633233  1
  Mn  Mn16  1  0.66666667  0.33333333  0.47911933  1
  Mn  Mn17  1  0.66666667  0.33333333  0.83411533  1
  P  P18  1  0.29833933  0.00122967  0.24930667  1
  P  P19  1  0.99877033  0.29710967  0.24930667  1
  P  P20  1  0.70289033  0.70166067  0.24930667  1
  P  P21  1  0.96117300  0.62339500  0.08278400  1
  P  P22  1  0.66222200  0.03882700  0.08278400  1
  P  P23  1  0.37660500  0.33777800  0.08278400  1
  P  P24  1  0.96500600  0.33456300  0.58264000  1
  P  P25  1  0.66543700  0.63044300  0.58264000  1
  P  P26  1  0.36955700  0.03499400  0.58264000  1
  P  P27  1  0.62783967  0.95672833  0.41611733  1
  P  P28  1  0.32888867  0.37216033  0.41611733  1
  P  P29  1  0.04327167  0.67111133  0.41611733  1
  P  P30  1  0.63167267  0.66789633  0.91597333  1
  P  P31  1  0.33210367  0.96377633  0.91597333  1
  P  P32  1  0.03622367  0.36832733  0.91597333  1
  P  P33  1  0.29450633  0.29006167  0.74945067  1
  P  P34  1  0.99555533  0.70549367  0.74945067  1
  P  P35  1  0.70993833  0.00444467  0.74945067  1
  O  O36  1  0.33036400  0.85381500  0.97526800  1
  O  O37  1  0.14618500  0.47654900  0.97526800  1
  O  O38  1  0.52345100  0.66963600  0.97526800  1
  O  O39  1  0.48660167  0.16940033  0.25619433  1
  O  O40  1  0.20764433  0.99662767  0.18897667  1
  O  O41  1  0.32377967  0.83516233  0.24958233  1
  O  O42  1  0.83059967  0.31720133  0.25619433  1
  O  O43  1  0.16483767  0.48861733  0.24958233  1
  O  O44  1  0.52240200  0.85427900  0.47618000  1
  O  O45  1  0.51138267  0.67622033  0.24958233  1
  O  O46  1  0.97668300  0.80438300  0.07373600  1
  O  O47  1  0.33187700  0.47759800  0.47618000  1
  O  O48  1  0.00337233  0.21101667  0.18897667  1
  O  O49  1  0.68279867  0.51339833  0.25619433  1
  O  O50  1  0.14760667  0.63937533  0.08842733  1
  O  O51  1  0.78898333  0.79235567  0.18897667  1
  O  O52  1  0.49176867  0.85239333  0.08842733  1
  O  O53  1  0.82770000  0.02331700  0.07373600  1
  O  O54  1  0.36062467  0.50823133  0.08842733  1
  O  O55  1  0.14572100  0.66812300  0.47618000  1
  O  O56  1  0.19561700  0.17230000  0.07373600  1
  O  O57  1  0.15826367  0.68625933  0.35825833  1
  O  O58  1  0.52799567  0.84173633  0.35825833  1
  O  O59  1  0.31374067  0.47200433  0.35825833  1
  O  O60  1  0.99703067  0.18714833  0.30860133  1
  O  O61  1  0.81285167  0.80988233  0.30860133  1
  O  O62  1  0.19011767  0.00296933  0.30860133  1
  O  O63  1  0.15326833  0.50273367  0.58952767  1
  O  O64  1  0.87431100  0.32996100  0.52231000  1
  O  O65  1  0.99044633  0.16849567  0.58291567  1
  O  O66  1  0.49726633  0.65053467  0.58952767  1
  O  O67  1  0.83150433  0.82195067  0.58291567  1
  O  O68  1  0.18906867  0.18761233  0.80951333  1
  O  O69  1  0.17804933  0.00955367  0.58291567  1
  O  O70  1  0.64334967  0.13771633  0.40706933  1
  O  O71  1  0.99854367  0.81093133  0.80951333  1
  O  O72  1  0.67003900  0.54435000  0.52231000  1
  O  O73  1  0.34946533  0.84673167  0.58952767  1
  O  O74  1  0.81427333  0.97270867  0.42176067  1
  O  O75  1  0.45565000  0.12568900  0.52231000  1
  O  O76  1  0.15843533  0.18572667  0.42176067  1
  O  O77  1  0.49436667  0.35665033  0.40706933  1
  O  O78  1  0.02729133  0.84156467  0.42176067  1
  O  O79  1  0.81238767  0.00145633  0.80951333  1
  O  O80  1  0.86228367  0.50563333  0.40706933  1
  O  O81  1  0.82493033  0.01959267  0.69159167  1
  O  O82  1  0.19466233  0.17506967  0.69159167  1
  O  O83  1  0.98040733  0.80533767  0.69159167  1
  O  O84  1  0.66369733  0.52048167  0.64193467  1
  O  O85  1  0.47951833  0.14321567  0.64193467  1
  O  O86  1  0.85678433  0.33630267  0.64193467  1
  O  O87  1  0.81993500  0.83606700  0.92286100  1
  O  O88  1  0.54097767  0.66329433  0.85564333  1
  O  O89  1  0.65711300  0.50182900  0.91624900  1
  O  O90  1  0.16393300  0.98386800  0.92286100  1
  O  O91  1  0.49817100  0.15528400  0.91624900  1
  O  O92  1  0.85573533  0.52094567  0.14284667  1
  O  O93  1  0.84471600  0.34288700  0.91624900  1
  O  O94  1  0.31001633  0.47104967  0.74040267  1
  O  O95  1  0.66521033  0.14426467  0.14284667  1
  O  O96  1  0.33670567  0.87768333  0.85564333  1
  O  O97  1  0.01613200  0.18006500  0.92286100  1
  O  O98  1  0.48094000  0.30604200  0.75509400  1
  O  O99  1  0.12231667  0.45902233  0.85564333  1
  O  O100  1  0.82510200  0.51906000  0.75509400  1
  O  O101  1  0.16103333  0.68998367  0.74040267  1
  O  O102  1  0.69395800  0.17489800  0.75509400  1
  O  O103  1  0.47905433  0.33478967  0.14284667  1
  O  O104  1  0.52895033  0.83896667  0.74040267  1
  O  O105  1  0.49159700  0.35292600  0.02492500  1
  O  O106  1  0.86132900  0.50840300  0.02492500  1
  O  O107  1  0.64707400  0.13867100  0.02492500  1
