# generated using pymatgen
data_LiMo2P3O13
_symmetry_space_group_name_H-M   'P 1'
_cell_length_a   10.79128600
_cell_length_b   14.22877400
_cell_length_c   8.82088710
_cell_angle_alpha   90.00000000
_cell_angle_beta   125.70562201
_cell_angle_gamma   90.00000000
_symmetry_Int_Tables_number   1
_chemical_formula_structural   LiMo2P3O13
_chemical_formula_sum   'Li4 Mo8 P12 O52'
_cell_volume   1099.82357337
_cell_formula_units_Z   4
loop_
 _symmetry_equiv_pos_site_id
 _symmetry_equiv_pos_as_xyz
  1  'x, y, z'
loop_
 _atom_site_type_symbol
 _atom_site_label
 _atom_site_symmetry_multiplicity
 _atom_site_fract_x
 _atom_site_fract_y
 _atom_site_fract_z
 _atom_site_occupancy
  Li  Li0  1  0.25000000  0.75000000  0.50000000  1
  Li  Li1  1  0.25000000  0.25000000  0.00000000  1
  Li  Li2  1  0.75000000  0.25000000  0.50000000  1
  Li  Li3  1  0.75000000  0.75000000  0.00000000  1
  Mo  Mo4  1  0.74507250  0.08266950  0.17175400  1
  Mo  Mo5  1  0.74507250  0.91733050  0.67175400  1
  Mo  Mo6  1  0.25492750  0.91733050  0.82824600  1
  Mo  Mo7  1  0.25492750  0.08266950  0.32824600  1
  Mo  Mo8  1  0.24507250  0.58266950  0.17175400  1
  Mo  Mo9  1  0.24507250  0.41733050  0.67175400  1
  Mo  Mo10  1  0.75492750  0.41733050  0.82824600  1
  Mo  Mo11  1  0.75492750  0.58266950  0.32824600  1
  P  P12  1  0.55427750  0.70565350  0.44089900  1
  P  P13  1  0.44572250  0.70565350  0.05910100  1
  P  P14  1  0.55427750  0.29434650  0.94089900  1
  P  P15  1  0.50000000  0.01165500  0.25000000  1
  P  P16  1  0.44572250  0.29434650  0.55910100  1
  P  P17  1  0.50000000  0.98834500  0.75000000  1
  P  P18  1  0.05427750  0.20565350  0.44089900  1
  P  P19  1  0.94572250  0.20565350  0.05910100  1
  P  P20  1  0.05427750  0.79434650  0.94089900  1
  P  P21  1  0.00000000  0.51165500  0.25000000  1
  P  P22  1  0.94572250  0.79434650  0.55910100  1
  P  P23  1  0.00000000  0.48834500  0.75000000  1
  O  O24  1  0.40771850  0.33816150  0.90705800  1
  O  O25  1  0.55104950  0.94885050  0.41859700  1
  O  O26  1  0.16742700  0.86969700  0.96688600  1
  O  O27  1  0.62470200  0.77492900  0.59956900  1
  O  O28  1  0.62470200  0.22507100  0.09956900  1
  O  O29  1  0.16742700  0.13030300  0.46688600  1
  O  O30  1  0.50000000  0.76100500  0.25000000  1
  O  O31  1  0.82798500  0.97480000  0.23126000  1
  O  O32  1  0.17201500  0.02520000  0.76874000  1
  O  O33  1  0.55104950  0.05114950  0.91859700  1
  O  O34  1  0.36584000  0.07663800  0.20329000  1
  O  O35  1  0.17201500  0.97480000  0.26874000  1
  O  O36  1  0.40771850  0.66183850  0.40705800  1
  O  O37  1  0.36584000  0.92336200  0.70329000  1
  O  O38  1  0.83257300  0.13030300  0.03311400  1
  O  O39  1  0.59228150  0.66183850  0.09294200  1
  O  O40  1  0.44895050  0.94885050  0.08140300  1
  O  O41  1  0.44895050  0.05114950  0.58140300  1
  O  O42  1  0.82798500  0.02520000  0.73126000  1
  O  O43  1  0.83257300  0.86969700  0.53311400  1
  O  O44  1  0.63416000  0.92336200  0.79671000  1
  O  O45  1  0.37529800  0.22507100  0.40043100  1
  O  O46  1  0.59228150  0.33816150  0.59294200  1
  O  O47  1  0.63416000  0.07663800  0.29671000  1
  O  O48  1  0.50000000  0.23899500  0.75000000  1
  O  O49  1  0.37529800  0.77492900  0.90043100  1
  O  O50  1  0.90771850  0.83816150  0.90705800  1
  O  O51  1  0.05104950  0.44885050  0.41859700  1
  O  O52  1  0.66742700  0.36969700  0.96688600  1
  O  O53  1  0.12470200  0.27492900  0.59956900  1
  O  O54  1  0.12470200  0.72507100  0.09956900  1
  O  O55  1  0.66742700  0.63030300  0.46688600  1
  O  O56  1  0.00000000  0.26100500  0.25000000  1
  O  O57  1  0.32798500  0.47480000  0.23126000  1
  O  O58  1  0.67201500  0.52520000  0.76874000  1
  O  O59  1  0.05104950  0.55114950  0.91859700  1
  O  O60  1  0.86584000  0.57663800  0.20329000  1
  O  O61  1  0.67201500  0.47480000  0.26874000  1
  O  O62  1  0.90771850  0.16183850  0.40705800  1
  O  O63  1  0.86584000  0.42336200  0.70329000  1
  O  O64  1  0.33257300  0.63030300  0.03311400  1
  O  O65  1  0.09228150  0.16183850  0.09294200  1
  O  O66  1  0.94895050  0.44885050  0.08140300  1
  O  O67  1  0.94895050  0.55114950  0.58140300  1
  O  O68  1  0.32798500  0.52520000  0.73126000  1
  O  O69  1  0.33257300  0.36969700  0.53311400  1
  O  O70  1  0.13416000  0.42336200  0.79671000  1
  O  O71  1  0.87529800  0.72507100  0.40043100  1
  O  O72  1  0.09228150  0.83816150  0.59294200  1
  O  O73  1  0.13416000  0.57663800  0.29671000  1
  O  O74  1  0.00000000  0.73899500  0.75000000  1
  O  O75  1  0.87529800  0.27492900  0.90043100  1
