# generated using pymatgen
data_Sr3W2O9
_symmetry_space_group_name_H-M   'P 1'
_cell_length_a   8.16003400
_cell_length_b   9.14778100
_cell_length_c   16.58608400
_cell_angle_alpha   90.00000000
_cell_angle_beta   90.00000000
_cell_angle_gamma   90.00000000
_symmetry_Int_Tables_number   1
_chemical_formula_structural   Sr3W2O9
_chemical_formula_sum   'Sr12 W8 O36'
_cell_volume   1238.08820957
_cell_formula_units_Z   4
loop_
 _symmetry_equiv_pos_site_id
 _symmetry_equiv_pos_as_xyz
  1  'x, y, z'
loop_
 _atom_site_type_symbol
 _atom_site_label
 _atom_site_symmetry_multiplicity
 _atom_site_fract_x
 _atom_site_fract_y
 _atom_site_fract_z
 _atom_site_occupancy
  Sr  Sr0  1  0.50000000  0.50000000  0.50000000  1
  Sr  Sr1  1  0.00000000  0.50000000  0.50000000  1
  Sr  Sr2  1  0.75000000  0.72017300  0.35543600  1
  Sr  Sr3  1  0.25000000  0.68395400  0.08120800  1
  Sr  Sr4  1  0.75000000  0.81604600  0.58120800  1
  Sr  Sr5  1  0.25000000  0.77982700  0.85543600  1
  Sr  Sr6  1  0.50000000  0.00000000  0.00000000  1
  Sr  Sr7  1  0.00000000  0.00000000  0.00000000  1
  Sr  Sr8  1  0.75000000  0.22017300  0.14456400  1
  Sr  Sr9  1  0.25000000  0.18395400  0.41879200  1
  Sr  Sr10  1  0.75000000  0.31604600  0.91879200  1
  Sr  Sr11  1  0.25000000  0.27982700  0.64456400  1
  W  W12  1  0.75000000  0.65486400  0.10245800  1
  W  W13  1  0.75000000  0.75545300  0.83338100  1
  W  W14  1  0.25000000  0.74454700  0.33338100  1
  W  W15  1  0.25000000  0.84513600  0.60245800  1
  W  W16  1  0.75000000  0.15486400  0.39754200  1
  W  W17  1  0.75000000  0.25545300  0.66661900  1
  W  W18  1  0.25000000  0.24454700  0.16661900  1
  W  W19  1  0.25000000  0.34513600  0.89754200  1
  O  O20  1  0.75000000  0.62378300  0.48419100  1
  O  O21  1  0.75000000  0.57812800  0.88061600  1
  O  O22  1  0.25000000  0.54022700  0.92007600  1
  O  O23  1  0.43611400  0.64742500  0.36484700  1
  O  O24  1  0.06388600  0.64742500  0.36484700  1
  O  O25  1  0.75000000  0.67714300  0.21020600  1
  O  O26  1  0.75000000  0.73153500  0.72497000  1
  O  O27  1  0.56540000  0.74210800  0.06386500  1
  O  O28  1  0.93460000  0.74210800  0.06386500  1
  O  O29  1  0.43460000  0.75789200  0.56386500  1
  O  O30  1  0.06540000  0.75789200  0.56386500  1
  O  O31  1  0.25000000  0.76846500  0.22497000  1
  O  O32  1  0.25000000  0.82285700  0.71020600  1
  O  O33  1  0.93611400  0.85257500  0.86484700  1
  O  O34  1  0.56388600  0.85257500  0.86484700  1
  O  O35  1  0.75000000  0.95977300  0.42007600  1
  O  O36  1  0.25000000  0.92187200  0.38061600  1
  O  O37  1  0.25000000  0.87621700  0.98419100  1
  O  O38  1  0.75000000  0.12378300  0.01580900  1
  O  O39  1  0.75000000  0.07812800  0.61938400  1
  O  O40  1  0.25000000  0.04022700  0.57992400  1
  O  O41  1  0.43611400  0.14742500  0.13515300  1
  O  O42  1  0.06388600  0.14742500  0.13515300  1
  O  O43  1  0.75000000  0.17714300  0.28979400  1
  O  O44  1  0.75000000  0.23153500  0.77503000  1
  O  O45  1  0.93460000  0.24210800  0.43613500  1
  O  O46  1  0.56540000  0.24210800  0.43613500  1
  O  O47  1  0.43460000  0.25789200  0.93613500  1
  O  O48  1  0.06540000  0.25789200  0.93613500  1
  O  O49  1  0.25000000  0.26846500  0.27503000  1
  O  O50  1  0.25000000  0.32285700  0.78979400  1
  O  O51  1  0.93611400  0.35257500  0.63515300  1
  O  O52  1  0.56388600  0.35257500  0.63515300  1
  O  O53  1  0.75000000  0.45977300  0.07992400  1
  O  O54  1  0.25000000  0.42187200  0.11938400  1
  O  O55  1  0.25000000  0.37621700  0.51580900  1
