# generated using pymatgen
data_Ca8V7ZnBiO28
_symmetry_space_group_name_H-M   'P 1'
_cell_length_a   18.93282200
_cell_length_b   10.95965000
_cell_length_c   14.17421067
_cell_angle_alpha   90.00000000
_cell_angle_beta   116.49083211
_cell_angle_gamma   90.00000000
_symmetry_Int_Tables_number   1
_chemical_formula_structural   Ca8V7ZnBiO28
_chemical_formula_sum   'Ca32 V28 Zn4 Bi4 O112'
_cell_volume   2632.30824399
_cell_formula_units_Z   4
loop_
 _symmetry_equiv_pos_site_id
 _symmetry_equiv_pos_as_xyz
  1  'x, y, z'
loop_
 _atom_site_type_symbol
 _atom_site_label
 _atom_site_symmetry_multiplicity
 _atom_site_fract_x
 _atom_site_fract_y
 _atom_site_fract_z
 _atom_site_occupancy
  Ca  Ca0  1  0.18001800  0.24828800  0.20247900  1
  Ca  Ca1  1  0.38559400  0.45178800  0.20162200  1
  Ca  Ca2  1  0.98762850  0.04396850  0.02493500  1
  Ca  Ca3  1  0.88746800  0.54685700  0.20141800  1
  Ca  Ca4  1  0.99812700  0.44703900  0.02261900  1
  Ca  Ca5  1  0.78942400  0.26371600  0.01884200  1
  Ca  Ca6  1  0.38559400  0.54821200  0.70162200  1
  Ca  Ca7  1  0.38746800  0.95314300  0.70141800  1
  Ca  Ca8  1  0.18001800  0.75171200  0.70247900  1
  Ca  Ca9  1  0.10477700  0.54636000  0.30173600  1
  Ca  Ca10  1  0.11956750  0.96972550  0.30133500  1
  Ca  Ca11  1  0.60477700  0.95364000  0.80173600  1
  Ca  Ca12  1  0.11956750  0.03027450  0.80133500  1
  Ca  Ca13  1  0.99812700  0.55296100  0.52261900  1
  Ca  Ca14  1  0.78942400  0.73628400  0.51884200  1
  Ca  Ca15  1  0.98762850  0.95603150  0.52493500  1
  Ca  Ca16  1  0.68001800  0.74828800  0.20247900  1
  Ca  Ca17  1  0.88559400  0.95178800  0.20162200  1
  Ca  Ca18  1  0.48762850  0.54396850  0.02493500  1
  Ca  Ca19  1  0.38746800  0.04685700  0.20141800  1
  Ca  Ca20  1  0.49812700  0.94703900  0.02261900  1
  Ca  Ca21  1  0.28942400  0.76371600  0.01884200  1
  Ca  Ca22  1  0.88559400  0.04821200  0.70162200  1
  Ca  Ca23  1  0.88746800  0.45314300  0.70141800  1
  Ca  Ca24  1  0.68001800  0.25171200  0.70247900  1
  Ca  Ca25  1  0.60477700  0.04636000  0.30173600  1
  Ca  Ca26  1  0.61956750  0.46972550  0.30133500  1
  Ca  Ca27  1  0.10477700  0.45364000  0.80173600  1
  Ca  Ca28  1  0.61956750  0.53027450  0.80133500  1
  Ca  Ca29  1  0.49812700  0.05296100  0.52261900  1
  Ca  Ca30  1  0.28942400  0.23628400  0.51884200  1
  Ca  Ca31  1  0.48762850  0.45603150  0.52493500  1
  V  V32  1  0.98439800  0.25156200  0.20305700  1
  V  V33  1  0.54497450  0.73133550  0.90484300  1
  V  V34  1  0.79506400  0.01878300  0.90556900  1
  V  V35  1  0.31403700  0.00115900  0.90474300  1
  V  V36  1  0.45753900  0.73341700  0.59229000  1
  V  V37  1  0.18382000  0.49475800  0.59285200  1
  V  V38  1  0.29506400  0.48121700  0.40556900  1
  V  V39  1  0.20101850  0.02296250  0.59184200  1
  V  V40  1  0.31403700  0.99884100  0.40474300  1
  V  V41  1  0.04497450  0.76866450  0.40484300  1
  V  V42  1  0.18382000  0.50524200  0.09285200  1
  V  V43  1  0.70101850  0.47703750  0.09184200  1
  V  V44  1  0.95753900  0.76658300  0.09229000  1
  V  V45  1  0.98439800  0.74843800  0.70305700  1
  V  V46  1  0.48439800  0.75156200  0.20305700  1
  V  V47  1  0.04497450  0.23133550  0.90484300  1
  V  V48  1  0.29506400  0.51878300  0.90556900  1
  V  V49  1  0.81403700  0.50115900  0.90474300  1
  V  V50  1  0.95753900  0.23341700  0.59229000  1
  V  V51  1  0.68382000  0.99475800  0.59285200  1
  V  V52  1  0.79506400  0.98121700  0.40556900  1
  V  V53  1  0.70101850  0.52296250  0.59184200  1
  V  V54  1  0.81403700  0.49884100  0.40474300  1
  V  V55  1  0.54497450  0.26866450  0.40484300  1
  V  V56  1  0.68382000  0.00524200  0.09285200  1
  V  V57  1  0.20101850  0.97703750  0.09184200  1
  V  V58  1  0.45753900  0.26658300  0.09229000  1
  V  V59  1  0.48439800  0.24843800  0.70305700  1
  Zn  Zn60  1  0.74784800  0.74959800  0.99768900  1
  Zn  Zn61  1  0.24784800  0.75040200  0.49768900  1
  Zn  Zn62  1  0.24784800  0.24959800  0.99768900  1
  Zn  Zn63  1  0.74784800  0.25040200  0.49768900  1
  Bi  Bi64  1  0.32747300  0.73310000  0.29795400  1
  Bi  Bi65  1  0.32747300  0.26690000  0.79795400  1
  Bi  Bi66  1  0.82747300  0.23310000  0.29795400  1
  Bi  Bi67  1  0.82747300  0.76690000  0.79795400  1
  O  O68  1  0.07142650  0.17081550  0.23928100  1
  O  O69  1  0.41617700  0.67718400  0.24041500  1
  O  O70  1  0.99857300  0.40357600  0.23940000  1
  O  O71  1  0.07012350  0.24410350  0.03738800  1
  O  O72  1  0.35613100  0.54185300  0.03734300  1
  O  O73  1  0.93823100  0.25039000  0.06616800  1
  O  O74  1  0.62713850  0.74366050  0.88010500  1
  O  O75  1  0.74653400  0.87774500  0.88249300  1
  O  O76  1  0.50412950  0.58713750  0.86665600  1
  O  O77  1  0.35395350  0.51817250  0.84087800  1
  O  O78  1  0.86197450  0.46503250  0.03656200  1
  O  O79  1  0.48050900  0.84969500  0.84349200  1
  O  O80  1  0.72496400  0.13392700  0.86702800  1
  O  O81  1  0.49973450  0.59936350  0.66319600  1
  O  O82  1  0.25766300  0.87571000  0.84281800  1
  O  O83  1  0.38705900  0.03734400  0.86569000  1
  O  O84  1  0.74701600  0.86612900  0.63747700  1
  O  O85  1  0.25257550  0.12819550  0.88119400  1
  O  O86  1  0.63131000  0.03221900  0.66397300  1
  O  O87  1  0.35613100  0.45814700  0.53734300  1
  O  O88  1  0.37036250  0.75071550  0.60679700  1
  O  O89  1  0.24414150  0.62294150  0.60865900  1
  O  O90  1  0.51078900  0.86725800  0.63700900  1
  O  O91  1  0.24315100  0.87660000  0.60807700  1
  O  O92  1  0.28478600  0.11989500  0.66289300  1
  O  O93  1  0.43646550  0.69839750  0.46394600  1
  O  O94  1  0.35395350  0.48182750  0.34087800  1
  O  O95  1  0.22496400  0.36607300  0.36702800  1
  O  O96  1  0.11433750  0.48260350  0.46624500  1
  O  O97  1  0.36197450  0.03496750  0.53656200  1
  O  O98  1  0.24653400  0.62225500  0.38249300  1
  O  O99  1  0.07012350  0.75589650  0.53738800  1
  O  O100  1  0.12920550  0.01572150  0.63558700  1
  O  O101  1  0.25257550  0.87180450  0.38119400  1
  O  O102  1  0.12713850  0.75633950  0.38010500  1
  O  O103  1  0.38705900  0.96265600  0.36569000  1
  O  O104  1  0.98050900  0.65030500  0.34349200  1
  O  O105  1  0.24414150  0.37705850  0.10865900  1
  O  O106  1  0.16666300  0.06986100  0.46510300  1
  O  O107  1  0.13131000  0.46778100  0.16397300  1
  O  O108  1  0.75766300  0.62429000  0.34281800  1
  O  O109  1  0.00412950  0.91286250  0.36665600  1
  O  O110  1  0.24701600  0.63387100  0.13747700  1
  O  O111  1  0.78478600  0.38010500  0.16289300  1
  O  O112  1  0.01078900  0.63274200  0.13700900  1
  O  O113  1  0.99973450  0.90063650  0.16319600  1
  O  O114  1  0.61433750  0.01739650  0.96624500  1
  O  O115  1  0.74315100  0.62340000  0.10807700  1
  O  O116  1  0.87036250  0.74928450  0.10679700  1
  O  O117  1  0.12920550  0.98427850  0.13558700  1
  O  O118  1  0.16666300  0.93013900  0.96510300  1
  O  O119  1  0.43646550  0.30160250  0.96394600  1
  O  O120  1  0.49857300  0.09642400  0.73940000  1
  O  O121  1  0.07142650  0.82918450  0.73928100  1
  O  O122  1  0.41617700  0.32281600  0.74041500  1
  O  O123  1  0.93823100  0.74961000  0.56616800  1
  O  O124  1  0.57142650  0.67081550  0.23928100  1
  O  O125  1  0.91617700  0.17718400  0.24041500  1
  O  O126  1  0.49857300  0.90357600  0.23940000  1
  O  O127  1  0.57012350  0.74410350  0.03738800  1
  O  O128  1  0.85613100  0.04185300  0.03734300  1
  O  O129  1  0.43823100  0.75039000  0.06616800  1
  O  O130  1  0.12713850  0.24366050  0.88010500  1
  O  O131  1  0.24653400  0.37774500  0.88249300  1
  O  O132  1  0.00412950  0.08713750  0.86665600  1
  O  O133  1  0.85395350  0.01817250  0.84087800  1
  O  O134  1  0.36197450  0.96503250  0.03656200  1
  O  O135  1  0.98050900  0.34969500  0.84349200  1
  O  O136  1  0.22496400  0.63392700  0.86702800  1
  O  O137  1  0.99973450  0.09936350  0.66319600  1
  O  O138  1  0.75766300  0.37571000  0.84281800  1
  O  O139  1  0.88705900  0.53734400  0.86569000  1
  O  O140  1  0.24701600  0.36612900  0.63747700  1
  O  O141  1  0.75257550  0.62819550  0.88119400  1
  O  O142  1  0.13131000  0.53221900  0.66397300  1
  O  O143  1  0.85613100  0.95814700  0.53734300  1
  O  O144  1  0.87036250  0.25071550  0.60679700  1
  O  O145  1  0.74414150  0.12294150  0.60865900  1
  O  O146  1  0.01078900  0.36725800  0.63700900  1
  O  O147  1  0.74315100  0.37660000  0.60807700  1
  O  O148  1  0.78478600  0.61989500  0.66289300  1
  O  O149  1  0.93646550  0.19839750  0.46394600  1
  O  O150  1  0.85395350  0.98182750  0.34087800  1
  O  O151  1  0.72496400  0.86607300  0.36702800  1
  O  O152  1  0.61433750  0.98260350  0.46624500  1
  O  O153  1  0.86197450  0.53496750  0.53656200  1
  O  O154  1  0.74653400  0.12225500  0.38249300  1
  O  O155  1  0.57012350  0.25589650  0.53738800  1
  O  O156  1  0.62920550  0.51572150  0.63558700  1
  O  O157  1  0.75257550  0.37180450  0.38119400  1
  O  O158  1  0.62713850  0.25633950  0.38010500  1
  O  O159  1  0.88705900  0.46265600  0.36569000  1
  O  O160  1  0.48050900  0.15030500  0.34349200  1
  O  O161  1  0.74414150  0.87705850  0.10865900  1
  O  O162  1  0.66666300  0.56986100  0.46510300  1
  O  O163  1  0.63131000  0.96778100  0.16397300  1
  O  O164  1  0.25766300  0.12429000  0.34281800  1
  O  O165  1  0.50412950  0.41286250  0.36665600  1
  O  O166  1  0.74701600  0.13387100  0.13747700  1
  O  O167  1  0.28478600  0.88010500  0.16289300  1
  O  O168  1  0.51078900  0.13274200  0.13700900  1
  O  O169  1  0.49973450  0.40063650  0.16319600  1
  O  O170  1  0.11433750  0.51739650  0.96624500  1
  O  O171  1  0.24315100  0.12340000  0.10807700  1
  O  O172  1  0.37036250  0.24928450  0.10679700  1
  O  O173  1  0.62920550  0.48427850  0.13558700  1
  O  O174  1  0.66666300  0.43013900  0.96510300  1
  O  O175  1  0.93646550  0.80160250  0.96394600  1
  O  O176  1  0.99857300  0.59642400  0.73940000  1
  O  O177  1  0.57142650  0.32918450  0.73928100  1
  O  O178  1  0.91617700  0.82281600  0.74041500  1
  O  O179  1  0.43823100  0.24961000  0.56616800  1
