# generated using pymatgen
data_VOF
_symmetry_space_group_name_H-M   'P 1'
_cell_length_a   6.66567147
_cell_length_b   6.68823242
_cell_length_c   12.50968700
_cell_angle_alpha   90.00000000
_cell_angle_beta   90.00000000
_cell_angle_gamma   90.00000000
_symmetry_Int_Tables_number   1
_chemical_formula_structural   VOF
_chemical_formula_sum   'V16 O16 F16'
_cell_volume   557.70136246
_cell_formula_units_Z   16
loop_
 _symmetry_equiv_pos_site_id
 _symmetry_equiv_pos_as_xyz
  1  'x, y, z'
loop_
 _atom_site_type_symbol
 _atom_site_label
 _atom_site_symmetry_multiplicity
 _atom_site_fract_x
 _atom_site_fract_y
 _atom_site_fract_z
 _atom_site_occupancy
  V  V0  1  0.52950100  0.50000000  0.00000000  1
  V  V1  1  0.46974650  0.49152550  0.75000000  1
  V  V2  1  0.52950100  0.50000000  0.50000000  1
  V  V3  1  0.46974650  0.50847450  0.25000000  1
  V  V4  1  0.99973500  0.52972800  0.87554000  1
  V  V5  1  0.99973500  0.47027200  0.37554000  1
  V  V6  1  0.99973500  0.47027200  0.12446000  1
  V  V7  1  0.99973500  0.52972800  0.62446000  1
  V  V8  1  0.02950100  0.00000000  0.00000000  1
  V  V9  1  0.96974650  0.99152550  0.75000000  1
  V  V10  1  0.02950100  0.00000000  0.50000000  1
  V  V11  1  0.96974650  0.00847450  0.25000000  1
  V  V12  1  0.49973500  0.02972800  0.87554000  1
  V  V13  1  0.49973500  0.97027200  0.37554000  1
  V  V14  1  0.49973500  0.97027200  0.12446000  1
  V  V15  1  0.49973500  0.02972800  0.62446000  1
  O  O16  1  0.00006200  0.18335700  0.12359900  1
  O  O17  1  0.00006200  0.18335700  0.37640100  1
  O  O18  1  0.18257200  0.50780500  0.75000000  1
  O  O19  1  0.18257200  0.49219500  0.25000000  1
  O  O20  1  0.81835150  0.50000000  0.00000000  1
  O  O21  1  0.81835150  0.50000000  0.50000000  1
  O  O22  1  0.00006200  0.81664300  0.87640100  1
  O  O23  1  0.00006200  0.81664300  0.62359900  1
  O  O24  1  0.50006200  0.68335700  0.12359900  1
  O  O25  1  0.50006200  0.68335700  0.37640100  1
  O  O26  1  0.68257200  0.00780500  0.75000000  1
  O  O27  1  0.68257200  0.99219500  0.25000000  1
  O  O28  1  0.31835150  0.00000000  0.00000000  1
  O  O29  1  0.31835150  0.00000000  0.50000000  1
  O  O30  1  0.50006200  0.31664300  0.87640100  1
  O  O31  1  0.50006200  0.31664300  0.62359900  1
  F  F32  1  0.00112100  0.20851100  0.87402200  1
  F  F33  1  0.00112100  0.20851100  0.62597800  1
  F  F34  1  0.20899700  0.50000000  0.00000000  1
  F  F35  1  0.20899700  0.50000000  0.50000000  1
  F  F36  1  0.78868600  0.52072000  0.75000000  1
  F  F37  1  0.78868600  0.47928000  0.25000000  1
  F  F38  1  0.00112100  0.79148900  0.37402200  1
  F  F39  1  0.00112100  0.79148900  0.12597800  1
  F  F40  1  0.50112100  0.70851100  0.87402200  1
  F  F41  1  0.50112100  0.70851100  0.62597800  1
  F  F42  1  0.70899700  0.00000000  0.00000000  1
  F  F43  1  0.70899700  0.00000000  0.50000000  1
  F  F44  1  0.28868600  0.02072000  0.75000000  1
  F  F45  1  0.28868600  0.97928000  0.25000000  1
  F  F46  1  0.50112100  0.29148900  0.37402200  1
  F  F47  1  0.50112100  0.29148900  0.12597800  1
