# generated using pymatgen
data_Na2SnO2
_symmetry_space_group_name_H-M   'P 1'
_cell_length_a   5.26591700
_cell_length_b   6.69714400
_cell_length_c   9.76057700
_cell_angle_alpha   90.00000000
_cell_angle_beta   90.00000000
_cell_angle_gamma   90.00000000
_symmetry_Int_Tables_number   1
_chemical_formula_structural   Na2SnO2
_chemical_formula_sum   'Na8 Sn4 O8'
_cell_volume   344.22240818
_cell_formula_units_Z   4
loop_
 _symmetry_equiv_pos_site_id
 _symmetry_equiv_pos_as_xyz
  1  'x, y, z'
loop_
 _atom_site_type_symbol
 _atom_site_label
 _atom_site_symmetry_multiplicity
 _atom_site_fract_x
 _atom_site_fract_y
 _atom_site_fract_z
 _atom_site_occupancy
  Na  Na0  1  0.00687800  0.62039800  0.42667200  1
  Na  Na1  1  0.00897900  0.13700200  0.75436500  1
  Na  Na2  1  0.49102100  0.86299800  0.25436500  1
  Na  Na3  1  0.49312200  0.37960200  0.92667200  1
  Na  Na4  1  0.50687800  0.87960200  0.57332800  1
  Na  Na5  1  0.50897900  0.36299800  0.24563500  1
  Na  Na6  1  0.99102100  0.63700200  0.74563500  1
  Na  Na7  1  0.99312200  0.12039800  0.07332800  1
  Sn  Sn8  1  0.00357700  0.09831400  0.42841100  1
  Sn  Sn9  1  0.49642300  0.90168600  0.92841100  1
  Sn  Sn10  1  0.50357700  0.40168600  0.57158900  1
  Sn  Sn11  1  0.99642300  0.59831400  0.07158900  1
  O  O12  1  0.01847100  0.89071900  0.58093500  1
  O  O13  1  0.11032000  0.33892800  0.55554500  1
  O  O14  1  0.38968000  0.66107200  0.05554500  1
  O  O15  1  0.48152900  0.10928100  0.08093500  1
  O  O16  1  0.51847100  0.60928100  0.41906500  1
  O  O17  1  0.61032000  0.16107200  0.44445500  1
  O  O18  1  0.88968000  0.83892800  0.94445500  1
  O  O19  1  0.98152900  0.39071900  0.91906500  1
