# generated using pymatgen
data_Y2TeO6
_symmetry_space_group_name_H-M   'P 1'
_cell_length_a   5.00483000
_cell_length_b   5.00483000
_cell_length_c   10.11392900
_cell_angle_alpha   90.00000000
_cell_angle_beta   90.00000000
_cell_angle_gamma   90.00000000
_symmetry_Int_Tables_number   1
_chemical_formula_structural   Y2TeO6
_chemical_formula_sum   'Y4 Te2 O12'
_cell_volume   253.33696372
_cell_formula_units_Z   2
loop_
 _symmetry_equiv_pos_site_id
 _symmetry_equiv_pos_as_xyz
  1  'x, y, z'
loop_
 _atom_site_type_symbol
 _atom_site_label
 _atom_site_symmetry_multiplicity
 _atom_site_fract_x
 _atom_site_fract_y
 _atom_site_fract_z
 _atom_site_occupancy
  Y  Y0  1  0.00000000  0.00000000  0.33458900  1
  Y  Y1  1  0.00000000  0.00000000  0.66541100  1
  Y  Y2  1  0.50000000  0.50000000  0.16541100  1
  Y  Y3  1  0.50000000  0.50000000  0.83458900  1
  Te  Te4  1  0.00000000  0.00000000  0.00000000  1
  Te  Te5  1  0.50000000  0.50000000  0.50000000  1
  O  O6  1  0.18263500  0.18263500  0.14559300  1
  O  O7  1  0.18263500  0.18263500  0.85440700  1
  O  O8  1  0.22281500  0.22281500  0.50000000  1
  O  O9  1  0.27718500  0.72281500  0.00000000  1
  O  O10  1  0.31736500  0.68263500  0.35440700  1
  O  O11  1  0.31736500  0.68263500  0.64559300  1
  O  O12  1  0.68263500  0.31736500  0.35440700  1
  O  O13  1  0.68263500  0.31736500  0.64559300  1
  O  O14  1  0.72281500  0.27718500  0.00000000  1
  O  O15  1  0.77718500  0.77718500  0.50000000  1
  O  O16  1  0.81736500  0.81736500  0.14559300  1
  O  O17  1  0.81736500  0.81736500  0.85440700  1
