# generated using pymatgen
data_In2WO6
_symmetry_space_group_name_H-M   'P 1'
_cell_length_a   5.46052600
_cell_length_b   10.38077300
_cell_length_c   16.05974600
_cell_angle_alpha   90.00000000
_cell_angle_beta   90.00000000
_cell_angle_gamma   90.00000000
_symmetry_Int_Tables_number   1
_chemical_formula_structural   In2WO6
_chemical_formula_sum   'In16 W8 O48'
_cell_volume   910.33836486
_cell_formula_units_Z   8
loop_
 _symmetry_equiv_pos_site_id
 _symmetry_equiv_pos_as_xyz
  1  'x, y, z'
loop_
 _atom_site_type_symbol
 _atom_site_label
 _atom_site_symmetry_multiplicity
 _atom_site_fract_x
 _atom_site_fract_y
 _atom_site_fract_z
 _atom_site_occupancy
  In  In0  1  0.90614000  0.64186500  0.93686200  1
  In  In1  1  0.40614000  0.85813500  0.93686200  1
  In  In2  1  0.95837700  0.85402900  0.77124100  1
  In  In3  1  0.45837700  0.64597100  0.77124100  1
  In  In4  1  0.95837700  0.35402900  0.72875900  1
  In  In5  1  0.45837700  0.14597100  0.72875900  1
  In  In6  1  0.40614000  0.35813500  0.56313800  1
  In  In7  1  0.90614000  0.14186500  0.56313800  1
  In  In8  1  0.09386000  0.85813500  0.43686200  1
  In  In9  1  0.59386000  0.64186500  0.43686200  1
  In  In10  1  0.54162300  0.85402900  0.27124100  1
  In  In11  1  0.04162300  0.64597100  0.27124100  1
  In  In12  1  0.54162300  0.35402900  0.22875900  1
  In  In13  1  0.04162300  0.14597100  0.22875900  1
  In  In14  1  0.09386000  0.35813500  0.06313800  1
  In  In15  1  0.59386000  0.14186500  0.06313800  1
  W  W16  1  0.39119200  0.38076900  0.88195200  1
  W  W17  1  0.89119200  0.11923100  0.88195200  1
  W  W18  1  0.39119200  0.88076900  0.61804800  1
  W  W19  1  0.89119200  0.61923100  0.61804800  1
  W  W20  1  0.10880800  0.38076900  0.38195200  1
  W  W21  1  0.60880800  0.11923100  0.38195200  1
  W  W22  1  0.10880800  0.88076900  0.11804800  1
  W  W23  1  0.60880800  0.61923100  0.11804800  1
  O  O24  1  0.92171800  0.21685100  0.98021700  1
  O  O25  1  0.42171800  0.28314900  0.98021700  1
  O  O26  1  0.11810300  0.46138100  0.93193800  1
  O  O27  1  0.61810300  0.03861900  0.93193800  1
  O  O28  1  0.11145500  0.98926500  0.89541900  1
  O  O29  1  0.61145500  0.51073500  0.89541900  1
  O  O30  1  0.68538000  0.77096000  0.85321500  1
  O  O31  1  0.18538000  0.72904000  0.85321500  1
  O  O32  1  0.66434000  0.26780100  0.82652000  1
  O  O33  1  0.16434000  0.23219900  0.82652000  1
  O  O34  1  0.80159300  0.04775500  0.77139800  1
  O  O35  1  0.30159300  0.45224500  0.77139800  1
  O  O36  1  0.30159300  0.95224500  0.72860200  1
  O  O37  1  0.80159300  0.54775500  0.72860200  1
  O  O38  1  0.66434000  0.76780100  0.67348000  1
  O  O39  1  0.16434000  0.73219900  0.67348000  1
  O  O40  1  0.68538000  0.27096000  0.64678500  1
  O  O41  1  0.18538000  0.22904000  0.64678500  1
  O  O42  1  0.11145500  0.48926500  0.60458100  1
  O  O43  1  0.61145500  0.01073500  0.60458100  1
  O  O44  1  0.11810300  0.96138100  0.56806200  1
  O  O45  1  0.61810300  0.53861900  0.56806200  1
  O  O46  1  0.42171800  0.78314900  0.51978300  1
  O  O47  1  0.92171800  0.71685100  0.51978300  1
  O  O48  1  0.07828200  0.28314900  0.48021700  1
  O  O49  1  0.57828200  0.21685100  0.48021700  1
  O  O50  1  0.38189700  0.46138100  0.43193800  1
  O  O51  1  0.88189700  0.03861900  0.43193800  1
  O  O52  1  0.38854500  0.98926500  0.39541900  1
  O  O53  1  0.88854500  0.51073500  0.39541900  1
  O  O54  1  0.81462000  0.77096000  0.35321500  1
  O  O55  1  0.31462000  0.72904000  0.35321500  1
  O  O56  1  0.83566000  0.26780100  0.32652000  1
  O  O57  1  0.33566000  0.23219900  0.32652000  1
  O  O58  1  0.19840700  0.45224500  0.27139800  1
  O  O59  1  0.69840700  0.04775500  0.27139800  1
  O  O60  1  0.19840700  0.95224500  0.22860200  1
  O  O61  1  0.69840700  0.54775500  0.22860200  1
  O  O62  1  0.83566000  0.76780100  0.17348000  1
  O  O63  1  0.33566000  0.73219900  0.17348000  1
  O  O64  1  0.81462000  0.27096000  0.14678500  1
  O  O65  1  0.31462000  0.22904000  0.14678500  1
  O  O66  1  0.38854500  0.48926500  0.10458100  1
  O  O67  1  0.88854500  0.01073500  0.10458100  1
  O  O68  1  0.38189700  0.96138100  0.06806200  1
  O  O69  1  0.88189700  0.53861900  0.06806200  1
  O  O70  1  0.07828200  0.78314900  0.01978300  1
  O  O71  1  0.57828200  0.71685100  0.01978300  1
