# generated using pymatgen
data_LiBi(PO3)4
_symmetry_space_group_name_H-M   'P 1'
_cell_length_a   16.74661600
_cell_length_b   7.23838200
_cell_length_c   10.02574039
_cell_angle_alpha   90.00000000
_cell_angle_beta   126.45473517
_cell_angle_gamma   90.00000000
_symmetry_Int_Tables_number   1
_chemical_formula_structural   LiBi(PO3)4
_chemical_formula_sum   'Li4 Bi4 P16 O48'
_cell_volume   977.50145060
_cell_formula_units_Z   4
loop_
 _symmetry_equiv_pos_site_id
 _symmetry_equiv_pos_as_xyz
  1  'x, y, z'
loop_
 _atom_site_type_symbol
 _atom_site_label
 _atom_site_symmetry_multiplicity
 _atom_site_fract_x
 _atom_site_fract_y
 _atom_site_fract_z
 _atom_site_occupancy
  Li  Li0  1  0.00000000  0.00000000  0.50000000  1
  Li  Li1  1  0.00000000  0.00000000  0.00000000  1
  Li  Li2  1  0.50000000  0.50000000  0.50000000  1
  Li  Li3  1  0.50000000  0.50000000  0.00000000  1
  Bi  Bi4  1  0.00000000  0.75471800  0.75000000  1
  Bi  Bi5  1  0.00000000  0.24528200  0.25000000  1
  Bi  Bi6  1  0.50000000  0.25471800  0.75000000  1
  Bi  Bi7  1  0.50000000  0.74528200  0.25000000  1
  P  P8  1  0.63710650  0.05234950  0.16196400  1
  P  P9  1  0.65019100  0.66301400  0.09441600  1
  P  P10  1  0.84980900  0.16301400  0.40558400  1
  P  P11  1  0.86289350  0.55234950  0.33803600  1
  P  P12  1  0.13710650  0.44765050  0.66196400  1
  P  P13  1  0.15019100  0.83698600  0.59441600  1
  P  P14  1  0.34980900  0.33698600  0.90558400  1
  P  P15  1  0.36289350  0.94765050  0.83803600  1
  P  P16  1  0.13710650  0.55234950  0.16196400  1
  P  P17  1  0.15019100  0.16301400  0.09441600  1
  P  P18  1  0.34980900  0.66301400  0.40558400  1
  P  P19  1  0.36289350  0.05234950  0.33803600  1
  P  P20  1  0.63710650  0.94765050  0.66196400  1
  P  P21  1  0.65019100  0.33698600  0.59441600  1
  P  P22  1  0.84980900  0.83698600  0.90558400  1
  P  P23  1  0.86289350  0.44765050  0.83803600  1
  O  O24  1  0.62403300  0.61921000  0.21254100  1
  O  O25  1  0.60958150  0.21535850  0.04813400  1
  O  O26  1  0.74122850  0.09175850  0.33838200  1
  O  O27  1  0.66288250  0.88351250  0.08846100  1
  O  O28  1  0.93352850  0.50315650  0.79937900  1
  O  O29  1  0.83711750  0.38351250  0.41153900  1
  O  O30  1  0.75877150  0.59175850  0.16161800  1
  O  O31  1  0.92306750  0.08695350  0.57610300  1
  O  O32  1  0.89041850  0.71535850  0.45186600  1
  O  O33  1  0.07693250  0.08695350  0.92389700  1
  O  O34  1  0.87596700  0.11921000  0.28745900  1
  O  O35  1  0.06647150  0.50315650  0.70062100  1
  O  O36  1  0.93352850  0.49684350  0.29937900  1
  O  O37  1  0.12403300  0.88079000  0.71254100  1
  O  O38  1  0.92306750  0.91304650  0.07610300  1
  O  O39  1  0.10958150  0.28464150  0.54813400  1
  O  O40  1  0.07693250  0.91304650  0.42389700  1
  O  O41  1  0.24122850  0.40824150  0.83838200  1
  O  O42  1  0.16288250  0.61648750  0.58846100  1
  O  O43  1  0.06647150  0.49684350  0.20062100  1
  O  O44  1  0.33711750  0.11648750  0.91153900  1
  O  O45  1  0.25877150  0.90824150  0.66161800  1
  O  O46  1  0.39041850  0.78464150  0.95186600  1
  O  O47  1  0.37596700  0.38079000  0.78745900  1
  O  O48  1  0.12403300  0.11921000  0.21254100  1
  O  O49  1  0.10958150  0.71535850  0.04813400  1
  O  O50  1  0.24122850  0.59175850  0.33838200  1
  O  O51  1  0.16288250  0.38351250  0.08846100  1
  O  O52  1  0.43352850  0.00315650  0.79937900  1
  O  O53  1  0.33711750  0.88351250  0.41153900  1
  O  O54  1  0.25877150  0.09175850  0.16161800  1
  O  O55  1  0.42306750  0.58695350  0.57610300  1
  O  O56  1  0.39041850  0.21535850  0.45186600  1
  O  O57  1  0.57693250  0.58695350  0.92389700  1
  O  O58  1  0.37596700  0.61921000  0.28745900  1
  O  O59  1  0.56647150  0.00315650  0.70062100  1
  O  O60  1  0.43352850  0.99684350  0.29937900  1
  O  O61  1  0.62403300  0.38079000  0.71254100  1
  O  O62  1  0.42306750  0.41304650  0.07610300  1
  O  O63  1  0.60958150  0.78464150  0.54813400  1
  O  O64  1  0.57693250  0.41304650  0.42389700  1
  O  O65  1  0.74122850  0.90824150  0.83838200  1
  O  O66  1  0.66288250  0.11648750  0.58846100  1
  O  O67  1  0.56647150  0.99684350  0.20062100  1
  O  O68  1  0.83711750  0.61648750  0.91153900  1
  O  O69  1  0.75877150  0.40824150  0.66161800  1
  O  O70  1  0.89041850  0.28464150  0.95186600  1
  O  O71  1  0.87596700  0.88079000  0.78745900  1
