# generated using pymatgen
data_ErBiO3
_symmetry_space_group_name_H-M   'P 1'
_cell_length_a   5.99852219
_cell_length_b   5.99852219
_cell_length_c   15.19662868
_cell_angle_alpha   90.00000000
_cell_angle_beta   90.00000000
_cell_angle_gamma   120.00000000
_symmetry_Int_Tables_number   1
_chemical_formula_structural   ErBiO3
_chemical_formula_sum   'Er6 Bi6 O18'
_cell_volume   473.55063424
_cell_formula_units_Z   6
loop_
 _symmetry_equiv_pos_site_id
 _symmetry_equiv_pos_as_xyz
  1  'x, y, z'
loop_
 _atom_site_type_symbol
 _atom_site_label
 _atom_site_symmetry_multiplicity
 _atom_site_fract_x
 _atom_site_fract_y
 _atom_site_fract_z
 _atom_site_occupancy
  Er  Er0  1  0.66666667  0.33333333  0.05600633  1
  Er  Er1  1  0.00000000  0.00000000  0.22267300  1
  Er  Er2  1  0.33333333  0.66666667  0.38933967  1
  Er  Er3  1  0.66666667  0.33333333  0.55600633  1
  Er  Er4  1  0.00000000  0.00000000  0.72267300  1
  Er  Er5  1  0.33333333  0.66666667  0.88933967  1
  Bi  Bi6  1  0.33333333  0.66666667  0.17569367  1
  Bi  Bi7  1  0.00000000  0.00000000  0.00902700  1
  Bi  Bi8  1  0.00000000  0.00000000  0.50902700  1
  Bi  Bi9  1  0.66666667  0.33333333  0.34236033  1
  Bi  Bi10  1  0.66666667  0.33333333  0.84236033  1
  Bi  Bi11  1  0.33333333  0.66666667  0.67569367  1
  O  O12  1  0.74279700  0.70297000  0.11556900  1
  O  O13  1  0.96017300  0.25720300  0.11556900  1
  O  O14  1  0.29703000  0.03982700  0.11556900  1
  O  O15  1  0.29350633  0.36963667  0.28223567  1
  O  O16  1  0.63036333  0.92386967  0.28223567  1
  O  O17  1  0.07613033  0.70649367  0.28223567  1
  O  O18  1  0.40946367  0.03630333  0.44890233  1
  O  O19  1  0.62683967  0.59053633  0.44890233  1
  O  O20  1  0.96369667  0.37316033  0.44890233  1
  O  O21  1  0.96017300  0.70297000  0.61556900  1
  O  O22  1  0.29703000  0.25720300  0.61556900  1
  O  O23  1  0.74279700  0.03982700  0.61556900  1
  O  O24  1  0.07613033  0.36963667  0.78223567  1
  O  O25  1  0.29350633  0.92386967  0.78223567  1
  O  O26  1  0.63036333  0.70649367  0.78223567  1
  O  O27  1  0.62683967  0.03630333  0.94890233  1
  O  O28  1  0.96369667  0.59053633  0.94890233  1
  O  O29  1  0.40946367  0.37316033  0.94890233  1
