# generated using pymatgen
data_Co5NiO12
_symmetry_space_group_name_H-M   'P 1'
_cell_length_a   4.89660383
_cell_length_b   8.49257568
_cell_length_c   9.61798881
_cell_angle_alpha   90.00000000
_cell_angle_beta   90.04968417
_cell_angle_gamma   90.00000000
_symmetry_Int_Tables_number   1
_chemical_formula_structural   Co5NiO12
_chemical_formula_sum   'Co10 Ni2 O24'
_cell_volume   399.96178476
_cell_formula_units_Z   2
loop_
 _symmetry_equiv_pos_site_id
 _symmetry_equiv_pos_as_xyz
  1  'x, y, z'
loop_
 _atom_site_type_symbol
 _atom_site_label
 _atom_site_symmetry_multiplicity
 _atom_site_fract_x
 _atom_site_fract_y
 _atom_site_fract_z
 _atom_site_occupancy
  Co  Co0  1  0.50000000  0.33333900  0.50000000  1
  Co  Co1  1  0.00000000  0.33333850  0.00000000  1
  Co  Co2  1  0.50000000  0.16666150  0.00000000  1
  Co  Co3  1  0.00000000  0.16666100  0.50000000  1
  Co  Co4  1  0.50000000  0.00000000  0.50000000  1
  Co  Co5  1  0.00000000  0.83333900  0.50000000  1
  Co  Co6  1  0.50000000  0.83333850  0.00000000  1
  Co  Co7  1  0.00000000  0.66666150  0.00000000  1
  Co  Co8  1  0.50000000  0.66666100  0.50000000  1
  Co  Co9  1  0.00000000  0.50000000  0.50000000  1
  Ni  Ni10  1  0.00000000  0.00000000  0.00000000  1
  Ni  Ni11  1  0.50000000  0.50000000  0.00000000  1
  O  O12  1  0.66633050  0.33384550  0.09817600  1
  O  O13  1  0.33366950  0.33384550  0.90182400  1
  O  O14  1  0.66624700  0.16646500  0.40185100  1
  O  O15  1  0.16624700  0.33353500  0.40185100  1
  O  O16  1  0.33375300  0.16646500  0.59814900  1
  O  O17  1  0.83316600  0.00000000  0.59815200  1
  O  O18  1  0.83375300  0.33353500  0.59814900  1
  O  O19  1  0.16633050  0.16615450  0.09817600  1
  O  O20  1  0.66766200  0.00000000  0.09822500  1
  O  O21  1  0.83366950  0.16615450  0.90182400  1
  O  O22  1  0.33233800  0.00000000  0.90177500  1
  O  O23  1  0.16683400  0.00000000  0.40184800  1
  O  O24  1  0.16633050  0.83384550  0.09817600  1
  O  O25  1  0.83366950  0.83384550  0.90182400  1
  O  O26  1  0.16624700  0.66646500  0.40185100  1
  O  O27  1  0.66624700  0.83353500  0.40185100  1
  O  O28  1  0.83375300  0.66646500  0.59814900  1
  O  O29  1  0.33316600  0.50000000  0.59815200  1
  O  O30  1  0.33375300  0.83353500  0.59814900  1
  O  O31  1  0.66633050  0.66615450  0.09817600  1
  O  O32  1  0.16766200  0.50000000  0.09822500  1
  O  O33  1  0.33366950  0.66615450  0.90182400  1
  O  O34  1  0.83233800  0.50000000  0.90177500  1
  O  O35  1  0.66683400  0.50000000  0.40184800  1
