# generated using pymatgen
data_Fe6O7F5
_symmetry_space_group_name_H-M   'P 1'
_cell_length_a   6.96842000
_cell_length_b   6.49401800
_cell_length_c   9.11407007
_cell_angle_alpha   90.00000000
_cell_angle_beta   90.25613880
_cell_angle_gamma   90.00000000
_symmetry_Int_Tables_number   1
_chemical_formula_structural   Fe6O7F5
_chemical_formula_sum   'Fe12 O14 F10'
_cell_volume   412.43530101
_cell_formula_units_Z   2
loop_
 _symmetry_equiv_pos_site_id
 _symmetry_equiv_pos_as_xyz
  1  'x, y, z'
loop_
 _atom_site_type_symbol
 _atom_site_label
 _atom_site_symmetry_multiplicity
 _atom_site_fract_x
 _atom_site_fract_y
 _atom_site_fract_z
 _atom_site_occupancy
  Fe  Fe0  1  0.99316650  0.99451450  0.67266500  1
  Fe  Fe1  1  0.50000000  0.52611200  0.00000000  1
  Fe  Fe2  1  0.00683350  0.99451450  0.32733500  1
  Fe  Fe3  1  0.53677000  0.99074600  0.82523800  1
  Fe  Fe4  1  0.50000000  0.99735000  0.50000000  1
  Fe  Fe5  1  0.46323000  0.99074600  0.17476200  1
  Fe  Fe6  1  0.49316650  0.49451450  0.67266500  1
  Fe  Fe7  1  0.00000000  0.02611200  0.00000000  1
  Fe  Fe8  1  0.50683350  0.49451450  0.32733500  1
  Fe  Fe9  1  0.03677000  0.49074600  0.82523800  1
  Fe  Fe10  1  0.00000000  0.49735000  0.50000000  1
  Fe  Fe11  1  0.96323000  0.49074600  0.17476200  1
  O  O12  1  0.18181800  0.00126000  0.16619600  1
  O  O13  1  0.50602750  0.80118850  0.65605200  1
  O  O14  1  0.50000000  0.82085000  0.00000000  1
  O  O15  1  0.49397250  0.80118850  0.34394800  1
  O  O16  1  0.50539350  0.19017250  0.65829700  1
  O  O17  1  0.49460650  0.19017250  0.34170300  1
  O  O18  1  0.81818200  0.00126000  0.83380400  1
  O  O19  1  0.68181800  0.50126000  0.16619600  1
  O  O20  1  0.00602750  0.30118850  0.65605200  1
  O  O21  1  0.00000000  0.32085000  0.00000000  1
  O  O22  1  0.99397250  0.30118850  0.34394800  1
  O  O23  1  0.00539350  0.69017250  0.65829700  1
  O  O24  1  0.99460650  0.69017250  0.34170300  1
  O  O25  1  0.31818200  0.50126000  0.83380400  1
  F  F26  1  0.19962300  0.00255900  0.83281400  1
  F  F27  1  0.18975750  0.99486650  0.50177000  1
  F  F28  1  0.50000000  0.20507000  0.00000000  1
  F  F29  1  0.81024250  0.99486650  0.49823000  1
  F  F30  1  0.80037700  0.00255900  0.16718600  1
  F  F31  1  0.69962300  0.50255900  0.83281400  1
  F  F32  1  0.68975750  0.49486650  0.50177000  1
  F  F33  1  0.00000000  0.70507000  0.00000000  1
  F  F34  1  0.31024250  0.49486650  0.49823000  1
  F  F35  1  0.30037700  0.50255900  0.16718600  1
