# generated using pymatgen
data_Sr2LiNb3O10
_symmetry_space_group_name_H-M   'P 1'
_cell_length_a   5.65347600
_cell_length_b   5.64274200
_cell_length_c   13.95815861
_cell_angle_alpha   90.00000000
_cell_angle_beta   101.68341629
_cell_angle_gamma   90.00000000
_symmetry_Int_Tables_number   1
_chemical_formula_structural   Sr2LiNb3O10
_chemical_formula_sum   'Sr4 Li2 Nb6 O20'
_cell_volume   436.05513972
_cell_formula_units_Z   2
loop_
 _symmetry_equiv_pos_site_id
 _symmetry_equiv_pos_as_xyz
  1  'x, y, z'
loop_
 _atom_site_type_symbol
 _atom_site_label
 _atom_site_symmetry_multiplicity
 _atom_site_fract_x
 _atom_site_fract_y
 _atom_site_fract_z
 _atom_site_occupancy
  Sr  Sr0  1  0.58353300  0.99718200  0.66707400  1
  Sr  Sr1  1  0.91646700  0.49718200  0.33292600  1
  Sr  Sr2  1  0.08353300  0.49718200  0.66707400  1
  Sr  Sr3  1  0.41646700  0.99718200  0.33292600  1
  Li  Li4  1  0.50000000  0.75004000  0.00000000  1
  Li  Li5  1  0.00000000  0.25004000  0.00000000  1
  Nb  Nb6  1  0.00000000  0.00587000  0.50000000  1
  Nb  Nb7  1  0.33842900  0.49960100  0.17682300  1
  Nb  Nb8  1  0.16157100  0.99960100  0.82317700  1
  Nb  Nb9  1  0.50000000  0.50587000  0.50000000  1
  Nb  Nb10  1  0.83842900  0.99960100  0.17682300  1
  Nb  Nb11  1  0.66157100  0.49960100  0.82317700  1
  O  O12  1  0.42718850  0.50217050  0.35432200  1
  O  O13  1  0.10426100  0.75025200  0.20829000  1
  O  O14  1  0.27261900  0.49997700  0.04523200  1
  O  O15  1  0.39573900  0.25025200  0.79171000  1
  O  O16  1  0.22738100  0.99997700  0.95476800  1
  O  O17  1  0.07281150  0.00217050  0.64567800  1
  O  O18  1  0.26399950  0.78017850  0.50025100  1
  O  O19  1  0.10180350  0.25024150  0.20383100  1
  O  O20  1  0.23600050  0.28017850  0.49974900  1
  O  O21  1  0.39819650  0.75024150  0.79616900  1
  O  O22  1  0.92718850  0.00217050  0.35432200  1
  O  O23  1  0.60426100  0.25025200  0.20829000  1
  O  O24  1  0.77261900  0.99997700  0.04523200  1
  O  O25  1  0.89573900  0.75025200  0.79171000  1
  O  O26  1  0.72738100  0.49997700  0.95476800  1
  O  O27  1  0.57281150  0.50217050  0.64567800  1
  O  O28  1  0.76399950  0.28017850  0.50025100  1
  O  O29  1  0.60180350  0.75024150  0.20383100  1
  O  O30  1  0.73600050  0.78017850  0.49974900  1
  O  O31  1  0.89819650  0.25024150  0.79616900  1
