# generated using pymatgen
data_Sr2CaI6
_symmetry_space_group_name_H-M   'P 1'
_cell_length_a   8.06371000
_cell_length_b   24.07758200
_cell_length_c   8.03297500
_cell_angle_alpha   90.00000000
_cell_angle_beta   90.00000000
_cell_angle_gamma   90.00000000
_symmetry_Int_Tables_number   1
_chemical_formula_structural   Sr2CaI6
_chemical_formula_sum   'Sr8 Ca4 I24'
_cell_volume   1559.63935921
_cell_formula_units_Z   4
loop_
 _symmetry_equiv_pos_site_id
 _symmetry_equiv_pos_as_xyz
  1  'x, y, z'
loop_
 _atom_site_type_symbol
 _atom_site_label
 _atom_site_symmetry_multiplicity
 _atom_site_fract_x
 _atom_site_fract_y
 _atom_site_fract_z
 _atom_site_occupancy
  Sr  Sr0  1  0.50000000  0.16678600  0.50000000  1
  Sr  Sr1  1  0.50000000  0.33321400  0.00000000  1
  Sr  Sr2  1  0.00000000  0.33321400  0.50000000  1
  Sr  Sr3  1  0.00000000  0.16678600  0.00000000  1
  Sr  Sr4  1  0.00000000  0.66678600  0.50000000  1
  Sr  Sr5  1  0.00000000  0.83321400  0.00000000  1
  Sr  Sr6  1  0.50000000  0.83321400  0.50000000  1
  Sr  Sr7  1  0.50000000  0.66678600  0.00000000  1
  Ca  Ca8  1  0.00000000  0.00000000  0.50000000  1
  Ca  Ca9  1  0.50000000  0.00000000  0.00000000  1
  Ca  Ca10  1  0.50000000  0.50000000  0.50000000  1
  Ca  Ca11  1  0.00000000  0.50000000  0.00000000  1
  I  I12  1  0.20245500  0.08571400  0.29429300  1
  I  I13  1  0.23128000  0.25000000  0.75000000  1
  I  I14  1  0.29754500  0.08571400  0.79429300  1
  I  I15  1  0.70245500  0.08571400  0.20570700  1
  I  I16  1  0.70245500  0.41428600  0.29429300  1
  I  I17  1  0.76872000  0.25000000  0.25000000  1
  I  I18  1  0.73128000  0.25000000  0.75000000  1
  I  I19  1  0.79754500  0.41428600  0.79429300  1
  I  I20  1  0.79754500  0.08571400  0.70570700  1
  I  I21  1  0.20245500  0.41428600  0.20570700  1
  I  I22  1  0.26872000  0.25000000  0.25000000  1
  I  I23  1  0.29754500  0.41428600  0.70570700  1
  I  I24  1  0.70245500  0.58571400  0.29429300  1
  I  I25  1  0.73128000  0.75000000  0.75000000  1
  I  I26  1  0.79754500  0.58571400  0.79429300  1
  I  I27  1  0.20245500  0.58571400  0.20570700  1
  I  I28  1  0.20245500  0.91428600  0.29429300  1
  I  I29  1  0.26872000  0.75000000  0.25000000  1
  I  I30  1  0.23128000  0.75000000  0.75000000  1
  I  I31  1  0.29754500  0.91428600  0.79429300  1
  I  I32  1  0.29754500  0.58571400  0.70570700  1
  I  I33  1  0.70245500  0.91428600  0.20570700  1
  I  I34  1  0.76872000  0.75000000  0.25000000  1
  I  I35  1  0.79754500  0.91428600  0.70570700  1
