# generated using pymatgen
data_LiNbF5
_symmetry_space_group_name_H-M   'P 1'
_cell_length_a   9.88750600
_cell_length_b   15.41006600
_cell_length_c   5.28015899
_cell_angle_alpha   90.00000000
_cell_angle_beta   100.39685813
_cell_angle_gamma   90.00000000
_symmetry_Int_Tables_number   1
_chemical_formula_structural   LiNbF5
_chemical_formula_sum   'Li8 Nb8 F40'
_cell_volume   791.31345742
_cell_formula_units_Z   8
loop_
 _symmetry_equiv_pos_site_id
 _symmetry_equiv_pos_as_xyz
  1  'x, y, z'
loop_
 _atom_site_type_symbol
 _atom_site_label
 _atom_site_symmetry_multiplicity
 _atom_site_fract_x
 _atom_site_fract_y
 _atom_site_fract_z
 _atom_site_occupancy
  Li  Li0  1  0.32977850  0.81191950  0.42868600  1
  Li  Li1  1  0.67022150  0.81191950  0.57131400  1
  Li  Li2  1  0.32977850  0.18808050  0.42868600  1
  Li  Li3  1  0.67022150  0.18808050  0.57131400  1
  Li  Li4  1  0.82977850  0.31191950  0.42868600  1
  Li  Li5  1  0.17022150  0.31191950  0.57131400  1
  Li  Li6  1  0.82977850  0.68808050  0.42868600  1
  Li  Li7  1  0.17022150  0.68808050  0.57131400  1
  Nb  Nb8  1  0.50000000  0.69232400  0.00000000  1
  Nb  Nb9  1  0.25198300  0.00000000  0.75332300  1
  Nb  Nb10  1  0.74801700  0.00000000  0.24667700  1
  Nb  Nb11  1  0.50000000  0.30767600  0.00000000  1
  Nb  Nb12  1  0.00000000  0.19232400  0.00000000  1
  Nb  Nb13  1  0.75198300  0.50000000  0.75332300  1
  Nb  Nb14  1  0.24801700  0.50000000  0.24667700  1
  Nb  Nb15  1  0.00000000  0.80767600  0.00000000  1
  F  F16  1  0.36510800  0.70646300  0.65296600  1
  F  F17  1  0.11920950  0.90257350  0.87603300  1
  F  F18  1  0.63489200  0.70646300  0.34703400  1
  F  F19  1  0.39149700  0.78515000  0.13095800  1
  F  F20  1  0.60850300  0.78515000  0.86904200  1
  F  F21  1  0.12852800  0.00000000  0.42802200  1
  F  F22  1  0.36600900  0.90695100  0.64006500  1
  F  F23  1  0.11920950  0.09742650  0.87603300  1
  F  F24  1  0.34545700  0.00000000  0.10287600  1
  F  F25  1  0.63399100  0.90695100  0.35993500  1
  F  F26  1  0.36600900  0.09304900  0.64006500  1
  F  F27  1  0.65454300  0.00000000  0.89712400  1
  F  F28  1  0.88079050  0.90257350  0.12396700  1
  F  F29  1  0.63399100  0.09304900  0.35993500  1
  F  F30  1  0.87147200  0.00000000  0.57197800  1
  F  F31  1  0.39149700  0.21485000  0.13095800  1
  F  F32  1  0.60850300  0.21485000  0.86904200  1
  F  F33  1  0.36510800  0.29353700  0.65296600  1
  F  F34  1  0.88079050  0.09742650  0.12396700  1
  F  F35  1  0.63489200  0.29353700  0.34703400  1
  F  F36  1  0.86510800  0.20646300  0.65296600  1
  F  F37  1  0.61920950  0.40257350  0.87603300  1
  F  F38  1  0.13489200  0.20646300  0.34703400  1
  F  F39  1  0.89149700  0.28515000  0.13095800  1
  F  F40  1  0.10850300  0.28515000  0.86904200  1
  F  F41  1  0.62852800  0.50000000  0.42802200  1
  F  F42  1  0.86600900  0.40695100  0.64006500  1
  F  F43  1  0.61920950  0.59742650  0.87603300  1
  F  F44  1  0.84545700  0.50000000  0.10287600  1
  F  F45  1  0.13399100  0.40695100  0.35993500  1
  F  F46  1  0.86600900  0.59304900  0.64006500  1
  F  F47  1  0.15454300  0.50000000  0.89712400  1
  F  F48  1  0.38079050  0.40257350  0.12396700  1
  F  F49  1  0.13399100  0.59304900  0.35993500  1
  F  F50  1  0.37147200  0.50000000  0.57197800  1
  F  F51  1  0.89149700  0.71485000  0.13095800  1
  F  F52  1  0.10850300  0.71485000  0.86904200  1
  F  F53  1  0.86510800  0.79353700  0.65296600  1
  F  F54  1  0.38079050  0.59742650  0.12396700  1
  F  F55  1  0.13489200  0.79353700  0.34703400  1
