# generated using pymatgen
data_LiAgF2
_symmetry_space_group_name_H-M   'P 1'
_cell_length_a   5.27846800
_cell_length_b   3.04887800
_cell_length_c   6.54304553
_cell_angle_alpha   90.00000000
_cell_angle_beta   105.05062137
_cell_angle_gamma   90.00000000
_symmetry_Int_Tables_number   1
_chemical_formula_structural   LiAgF2
_chemical_formula_sum   'Li2 Ag2 F4'
_cell_volume   101.68775639
_cell_formula_units_Z   2
loop_
 _symmetry_equiv_pos_site_id
 _symmetry_equiv_pos_as_xyz
  1  'x, y, z'
loop_
 _atom_site_type_symbol
 _atom_site_label
 _atom_site_symmetry_multiplicity
 _atom_site_fract_x
 _atom_site_fract_y
 _atom_site_fract_z
 _atom_site_occupancy
  Li  Li0  1  0.50000000  0.01469400  0.50000000  1
  Li  Li1  1  0.00000000  0.51469400  0.50000000  1
  Ag  Ag2  1  0.50000000  0.49562600  0.00000000  1
  Ag  Ag3  1  0.00000000  0.99562600  0.00000000  1
  F  F4  1  0.11704450  0.00823350  0.32925800  1
  F  F5  1  0.88295550  0.00823350  0.67074200  1
  F  F6  1  0.61704450  0.50823350  0.32925800  1
  F  F7  1  0.38295550  0.50823350  0.67074200  1
