# generated using pymatgen
data_H3SNO3
_symmetry_space_group_name_H-M   'P 1'
_cell_length_a   8.26739900
_cell_length_b   8.35655000
_cell_length_c   9.55817500
_cell_angle_alpha   90.00000000
_cell_angle_beta   90.00000000
_cell_angle_gamma   90.00000000
_symmetry_Int_Tables_number   1
_chemical_formula_structural   H3SNO3
_chemical_formula_sum   'H24 S8 N8 O24'
_cell_volume   660.34499691
_cell_formula_units_Z   8
loop_
 _symmetry_equiv_pos_site_id
 _symmetry_equiv_pos_as_xyz
  1  'x, y, z'
loop_
 _atom_site_type_symbol
 _atom_site_label
 _atom_site_symmetry_multiplicity
 _atom_site_fract_x
 _atom_site_fract_y
 _atom_site_fract_z
 _atom_site_occupancy
  H  H0  1  0.98626400  0.37644800  0.40937900  1
  H  H1  1  0.98626400  0.12355200  0.90937900  1
  H  H2  1  0.08632700  0.72595500  0.38728900  1
  H  H3  1  0.08632700  0.77404500  0.88728900  1
  H  H4  1  0.07446000  0.31423300  0.03707700  1
  H  H5  1  0.07446000  0.18576700  0.53707700  1
  H  H6  1  0.42554000  0.81423300  0.03707700  1
  H  H7  1  0.42554000  0.68576700  0.53707700  1
  H  H8  1  0.41367300  0.22595500  0.38728900  1
  H  H9  1  0.41367300  0.27404500  0.88728900  1
  H  H10  1  0.51373600  0.87644800  0.40937900  1
  H  H11  1  0.51373600  0.62355200  0.90937900  1
  H  H12  1  0.48626400  0.12355200  0.59062100  1
  H  H13  1  0.48626400  0.37644800  0.09062100  1
  H  H14  1  0.58632700  0.72595500  0.11271100  1
  H  H15  1  0.58632700  0.77404500  0.61271100  1
  H  H16  1  0.57446000  0.31423300  0.46292300  1
  H  H17  1  0.57446000  0.18576700  0.96292300  1
  H  H18  1  0.92554000  0.81423300  0.46292300  1
  H  H19  1  0.92554000  0.68576700  0.96292300  1
  H  H20  1  0.91367300  0.22595500  0.11271100  1
  H  H21  1  0.91367300  0.27404500  0.61271100  1
  H  H22  1  0.01373600  0.62355200  0.59062100  1
  H  H23  1  0.01373600  0.87644800  0.09062100  1
  S  S24  1  0.14470600  0.09098800  0.15540600  1
  S  S25  1  0.14470600  0.40901200  0.65540600  1
  S  S26  1  0.35529400  0.59098800  0.15540600  1
  S  S27  1  0.35529400  0.90901200  0.65540600  1
  S  S28  1  0.64470600  0.09098800  0.34459400  1
  S  S29  1  0.64470600  0.40901200  0.84459400  1
  S  S30  1  0.85529400  0.59098800  0.34459400  1
  S  S31  1  0.85529400  0.90901200  0.84459400  1
  N  N32  1  0.01923700  0.20619800  0.05762600  1
  N  N33  1  0.01923700  0.29380200  0.55762600  1
  N  N34  1  0.48076300  0.70619800  0.05762600  1
  N  N35  1  0.48076300  0.79380200  0.55762600  1
  N  N36  1  0.51923700  0.20619800  0.44237400  1
  N  N37  1  0.51923700  0.29380200  0.94237400  1
  N  N38  1  0.98076300  0.70619800  0.44237400  1
  N  N39  1  0.98076300  0.79380200  0.94237400  1
  O  O40  1  0.03435400  0.94471100  0.18277400  1
  O  O41  1  0.03435400  0.55528900  0.68277400  1
  O  O42  1  0.22213100  0.55038400  0.06441600  1
  O  O43  1  0.22213100  0.94961600  0.56441600  1
  O  O44  1  0.17872700  0.16525600  0.28793300  1
  O  O45  1  0.17872700  0.33474400  0.78793300  1
  O  O46  1  0.32127300  0.66525600  0.28793300  1
  O  O47  1  0.32127300  0.83474400  0.78793300  1
  O  O48  1  0.27786900  0.05038400  0.06441600  1
  O  O49  1  0.27786900  0.44961600  0.56441600  1
  O  O50  1  0.46564600  0.05528900  0.68277400  1
  O  O51  1  0.46564600  0.44471100  0.18277400  1
  O  O52  1  0.53435400  0.55528900  0.81722600  1
  O  O53  1  0.53435400  0.94471100  0.31722600  1
  O  O54  1  0.72213100  0.55038400  0.43558400  1
  O  O55  1  0.72213100  0.94961600  0.93558400  1
  O  O56  1  0.67872700  0.16525600  0.21206700  1
  O  O57  1  0.67872700  0.33474400  0.71206700  1
  O  O58  1  0.82127300  0.66525600  0.21206700  1
  O  O59  1  0.82127300  0.83474400  0.71206700  1
  O  O60  1  0.77786900  0.05038400  0.43558400  1
  O  O61  1  0.77786900  0.44961600  0.93558400  1
  O  O62  1  0.96564600  0.44471100  0.31722600  1
  O  O63  1  0.96564600  0.05528900  0.81722600  1
