# generated using pymatgen
data_NaAl11O17
_symmetry_space_group_name_H-M   'P 1'
_cell_length_a   5.65256008
_cell_length_b   5.65256008
_cell_length_c   33.99534364
_cell_angle_alpha   90.00000000
_cell_angle_beta   90.00000000
_cell_angle_gamma   120.00000000
_symmetry_Int_Tables_number   1
_chemical_formula_structural   NaAl11O17
_chemical_formula_sum   'Na3 Al33 O51'
_cell_volume   940.67681744
_cell_formula_units_Z   3
loop_
 _symmetry_equiv_pos_site_id
 _symmetry_equiv_pos_as_xyz
  1  'x, y, z'
loop_
 _atom_site_type_symbol
 _atom_site_label
 _atom_site_symmetry_multiplicity
 _atom_site_fract_x
 _atom_site_fract_y
 _atom_site_fract_z
 _atom_site_occupancy
  Na  Na0  1  0.00000000  0.00000000  0.17210200  1
  Na  Na1  1  0.66666667  0.33333333  0.50543533  1
  Na  Na2  1  0.33333333  0.66666667  0.83876867  1
  Al  Al3  1  0.83180467  0.66360933  0.07198933  1
  Al  Al4  1  0.00000000  0.00000000  0.00013700  1
  Al  Al5  1  0.33639067  0.16819533  0.07198933  1
  Al  Al6  1  0.83180467  0.16819533  0.07198933  1
  Al  Al7  1  0.33333333  0.66666667  0.21624967  1
  Al  Al8  1  0.33333333  0.66666667  0.11679567  1
  Al  Al9  1  0.33333333  0.66666667  0.31669167  1
  Al  Al10  1  0.33333333  0.66666667  0.01725967  1
  Al  Al11  1  0.83375367  0.16624633  0.26177533  1
  Al  Al12  1  0.33249267  0.16624633  0.26177533  1
  Al  Al13  1  0.83375367  0.66750733  0.26177533  1
  Al  Al14  1  0.49847133  0.99694267  0.40532267  1
  Al  Al15  1  0.66666667  0.33333333  0.33347033  1
  Al  Al16  1  0.00305733  0.50152867  0.40532267  1
  Al  Al17  1  0.49847133  0.50152867  0.40532267  1
  Al  Al18  1  0.00000000  0.00000000  0.54958300  1
  Al  Al19  1  0.00000000  0.00000000  0.45012900  1
  Al  Al20  1  0.00000000  0.00000000  0.65002500  1
  Al  Al21  1  0.00000000  0.00000000  0.35059300  1
  Al  Al22  1  0.50042033  0.49957967  0.59510867  1
  Al  Al23  1  0.99915933  0.49957967  0.59510867  1
  Al  Al24  1  0.50042033  0.00084067  0.59510867  1
  Al  Al25  1  0.16513800  0.33027600  0.73865600  1
  Al  Al26  1  0.33333333  0.66666667  0.66680367  1
  Al  Al27  1  0.66972400  0.83486200  0.73865600  1
  Al  Al28  1  0.16513800  0.83486200  0.73865600  1
  Al  Al29  1  0.66666667  0.33333333  0.88291633  1
  Al  Al30  1  0.66666667  0.33333333  0.78346233  1
  Al  Al31  1  0.66666667  0.33333333  0.98335833  1
  Al  Al32  1  0.66666667  0.33333333  0.68392633  1
  Al  Al33  1  0.16708700  0.83291300  0.92844200  1
  Al  Al34  1  0.66582600  0.83291300  0.92844200  1
  Al  Al35  1  0.16708700  0.33417400  0.92844200  1
  O  O36  1  0.66666667  0.33333333  0.03687033  1
  O  O37  1  0.66666667  0.33333333  0.23800833  1
  O  O38  1  0.15605000  0.84395000  0.03361900  1
  O  O39  1  0.50958833  0.01917667  0.29963667  1
  O  O40  1  0.16260367  0.83739633  0.23528233  1
  O  O41  1  0.50188233  0.00376467  0.09701767  1
  O  O42  1  0.67479267  0.83739633  0.23528233  1
  O  O43  1  0.33333333  0.66666667  0.16641567  1
  O  O44  1  0.98082333  0.49041167  0.29963667  1
  O  O45  1  0.68790000  0.84395000  0.03361900  1
  O  O46  1  0.99623533  0.49811767  0.09701767  1
  O  O47  1  0.16260367  0.32520733  0.23528233  1
  O  O48  1  0.50188233  0.49811767  0.09701767  1
  O  O49  1  0.15605000  0.31210000  0.03361900  1
  O  O50  1  0.50958833  0.49041167  0.29963667  1
  O  O51  1  0.00000000  0.00000000  0.29646100  1
  O  O52  1  0.00000000  0.00000000  0.09672900  1
  O  O53  1  0.33333333  0.66666667  0.37020367  1
  O  O54  1  0.33333333  0.66666667  0.57134167  1
  O  O55  1  0.82271667  0.17728333  0.36695233  1
  O  O56  1  0.17625500  0.35251000  0.63297000  1
  O  O57  1  0.82927033  0.17072967  0.56861567  1
  O  O58  1  0.16854900  0.33709800  0.43035100  1
  O  O59  1  0.34145933  0.17072967  0.56861567  1
  O  O60  1  0.00000000  0.00000000  0.49974900  1
  O  O61  1  0.64749000  0.82374500  0.63297000  1
  O  O62  1  0.35456667  0.17728333  0.36695233  1
  O  O63  1  0.66290200  0.83145100  0.43035100  1
  O  O64  1  0.82927033  0.65854067  0.56861567  1
  O  O65  1  0.16854900  0.83145100  0.43035100  1
  O  O66  1  0.82271667  0.64543333  0.36695233  1
  O  O67  1  0.17625500  0.82374500  0.63297000  1
  O  O68  1  0.66666667  0.33333333  0.62979433  1
  O  O69  1  0.66666667  0.33333333  0.43006233  1
  O  O70  1  0.00000000  0.00000000  0.70353700  1
  O  O71  1  0.00000000  0.00000000  0.90467500  1
  O  O72  1  0.48938333  0.51061667  0.70028567  1
  O  O73  1  0.84292167  0.68584333  0.96630333  1
  O  O74  1  0.49593700  0.50406300  0.90194900  1
  O  O75  1  0.83521567  0.67043133  0.76368433  1
  O  O76  1  0.00812600  0.50406300  0.90194900  1
  O  O77  1  0.66666667  0.33333333  0.83308233  1
  O  O78  1  0.31415667  0.15707833  0.96630333  1
  O  O79  1  0.02123333  0.51061667  0.70028567  1
  O  O80  1  0.32956867  0.16478433  0.76368433  1
  O  O81  1  0.49593700  0.99187400  0.90194900  1
  O  O82  1  0.83521567  0.16478433  0.76368433  1
  O  O83  1  0.48938333  0.97876667  0.70028567  1
  O  O84  1  0.84292167  0.15707833  0.96630333  1
  O  O85  1  0.33333333  0.66666667  0.96312767  1
  O  O86  1  0.33333333  0.66666667  0.76339567  1
