# generated using pymatgen
data_Li5V7O12
_symmetry_space_group_name_H-M   'P 1'
_cell_length_a   5.13543491
_cell_length_b   9.06105072
_cell_length_c   9.94477990
_cell_angle_alpha   90.00000000
_cell_angle_beta   101.00064176
_cell_angle_gamma   90.00000000
_symmetry_Int_Tables_number   1
_chemical_formula_structural   Li5V7O12
_chemical_formula_sum   'Li10 V14 O24'
_cell_volume   454.25173789
_cell_formula_units_Z   2
loop_
 _symmetry_equiv_pos_site_id
 _symmetry_equiv_pos_as_xyz
  1  'x, y, z'
loop_
 _atom_site_type_symbol
 _atom_site_label
 _atom_site_symmetry_multiplicity
 _atom_site_fract_x
 _atom_site_fract_y
 _atom_site_fract_z
 _atom_site_occupancy
  Li  Li0  1  0.75391350  0.91579450  0.25423700  1
  Li  Li1  1  0.24608650  0.91579450  0.74576300  1
  Li  Li2  1  0.50000000  0.58253400  0.50000000  1
  Li  Li3  1  0.25492450  0.58250150  0.74466800  1
  Li  Li4  1  0.74507550  0.58250150  0.25533200  1
  Li  Li5  1  0.25391350  0.41579450  0.25423700  1
  Li  Li6  1  0.74608650  0.41579450  0.74576300  1
  Li  Li7  1  0.00000000  0.08253400  0.50000000  1
  Li  Li8  1  0.75492450  0.08250150  0.74466800  1
  Li  Li9  1  0.24507550  0.08250150  0.25533200  1
  V  V10  1  0.25081750  0.74457250  0.25087200  1
  V  V11  1  0.50000000  0.73692850  0.00000000  1
  V  V12  1  0.74918250  0.74457250  0.74912800  1
  V  V13  1  0.00000000  0.57420100  0.00000000  1
  V  V14  1  0.50000000  0.91998850  0.50000000  1
  V  V15  1  0.00000000  0.91436400  0.00000000  1
  V  V16  1  0.00000000  0.75045600  0.50000000  1
  V  V17  1  0.75081750  0.24457250  0.25087200  1
  V  V18  1  0.00000000  0.23692850  0.00000000  1
  V  V19  1  0.24918250  0.24457250  0.74912800  1
  V  V20  1  0.50000000  0.07420100  0.00000000  1
  V  V21  1  0.00000000  0.41998850  0.50000000  1
  V  V22  1  0.50000000  0.41436400  0.00000000  1
  V  V23  1  0.50000000  0.25045600  0.50000000  1
  O  O24  1  0.86679750  0.90497950  0.62070100  1
  O  O25  1  0.62031800  0.89851800  0.87657300  1
  O  O26  1  0.61296750  0.75871450  0.37941500  1
  O  O27  1  0.13320250  0.90497950  0.37929900  1
  O  O28  1  0.37968200  0.89851800  0.12342700  1
  O  O29  1  0.38703250  0.75871450  0.62058500  1
  O  O30  1  0.12398350  0.74361050  0.87726600  1
  O  O31  1  0.11820850  0.59163450  0.37985800  1
  O  O32  1  0.87601650  0.74361050  0.12273400  1
  O  O33  1  0.38260150  0.58199250  0.12936300  1
  O  O34  1  0.88179150  0.59163450  0.62014200  1
  O  O35  1  0.61739850  0.58199250  0.87063700  1
  O  O36  1  0.36679750  0.40497950  0.62070100  1
  O  O37  1  0.12031800  0.39851800  0.87657300  1
  O  O38  1  0.11296750  0.25871450  0.37941500  1
  O  O39  1  0.63320250  0.40497950  0.37929900  1
  O  O40  1  0.87968200  0.39851800  0.12342700  1
  O  O41  1  0.88703250  0.25871450  0.62058500  1
  O  O42  1  0.62398350  0.24361050  0.87726600  1
  O  O43  1  0.61820850  0.09163450  0.37985800  1
  O  O44  1  0.37601650  0.24361050  0.12273400  1
  O  O45  1  0.88260150  0.08199250  0.12936300  1
  O  O46  1  0.38179150  0.09163450  0.62014200  1
  O  O47  1  0.11739850  0.08199250  0.87063700  1
