# generated using pymatgen
data_Mn6OF11
_symmetry_space_group_name_H-M   'P 1'
_cell_length_a   4.98339800
_cell_length_b   5.90852300
_cell_length_c   16.13599531
_cell_angle_alpha   90.94732486
_cell_angle_beta   90.11820285
_cell_angle_gamma   91.01494614
_symmetry_Int_Tables_number   1
_chemical_formula_structural   Mn6OF11
_chemical_formula_sum   'Mn12 O2 F22'
_cell_volume   474.97587316
_cell_formula_units_Z   2
loop_
 _symmetry_equiv_pos_site_id
 _symmetry_equiv_pos_as_xyz
  1  'x, y, z'
loop_
 _atom_site_type_symbol
 _atom_site_label
 _atom_site_symmetry_multiplicity
 _atom_site_fract_x
 _atom_site_fract_y
 _atom_site_fract_z
 _atom_site_occupancy
  Mn  Mn0  1  0.00132900  0.83176700  0.58468500  1
  Mn  Mn1  1  0.00377000  0.17210600  0.75754400  1
  Mn  Mn2  1  0.98075100  0.81547300  0.92387300  1
  Mn  Mn3  1  0.99623000  0.82789400  0.24245600  1
  Mn  Mn4  1  0.99867100  0.16823300  0.41531500  1
  Mn  Mn5  1  0.01924900  0.18452700  0.07612700  1
  Mn  Mn6  1  0.49513600  0.67178200  0.41574100  1
  Mn  Mn7  1  0.50337300  0.64198900  0.07532400  1
  Mn  Mn8  1  0.49499600  0.67273800  0.75203400  1
  Mn  Mn9  1  0.49662700  0.35801100  0.92467600  1
  Mn  Mn10  1  0.50486400  0.32821800  0.58425900  1
  Mn  Mn11  1  0.50500400  0.32726200  0.24796600  1
  O  O12  1  0.29555600  0.39839200  0.02512800  1
  O  O13  1  0.70444400  0.60160800  0.97487200  1
  F  F14  1  0.23234100  0.90060700  0.69529500  1
  F  F15  1  0.22462500  0.89067700  0.35607200  1
  F  F16  1  0.22376500  0.89059200  0.02892800  1
  F  F17  1  0.24615100  0.12952800  0.86864600  1
  F  F18  1  0.23174900  0.10312100  0.52487800  1
  F  F19  1  0.21661900  0.11029300  0.19141000  1
  F  F20  1  0.24892800  0.61483500  0.85621800  1
  F  F21  1  0.26770900  0.39248200  0.69419100  1
  F  F22  1  0.27120500  0.60384500  0.52716200  1
  F  F23  1  0.26932300  0.39375000  0.35630500  1
  F  F24  1  0.29112700  0.61482600  0.18342600  1
  F  F25  1  0.70887300  0.38517400  0.81657400  1
  F  F26  1  0.73067700  0.60625000  0.64369500  1
  F  F27  1  0.72879500  0.39615500  0.47283800  1
  F  F28  1  0.75107200  0.38516500  0.14378200  1
  F  F29  1  0.73229100  0.60751800  0.30580900  1
  F  F30  1  0.78338100  0.88970700  0.80859000  1
  F  F31  1  0.76825100  0.89687900  0.47512200  1
  F  F32  1  0.77537500  0.10932300  0.64392800  1
  F  F33  1  0.77623500  0.10940800  0.97107200  1
  F  F34  1  0.75384900  0.87047200  0.13135400  1
  F  F35  1  0.76765900  0.09939300  0.30470500  1
