# generated using pymatgen
data_PNO
_symmetry_space_group_name_H-M   'P 1'
_cell_length_a   13.58631200
_cell_length_b   4.68419000
_cell_length_c   8.84416766
_cell_angle_alpha   90.00000000
_cell_angle_beta   128.76709644
_cell_angle_gamma   90.00000000
_symmetry_Int_Tables_number   1
_chemical_formula_structural   PNO
_chemical_formula_sum   'P12 N12 O12'
_cell_volume   438.85322559
_cell_formula_units_Z   12
loop_
 _symmetry_equiv_pos_site_id
 _symmetry_equiv_pos_as_xyz
  1  'x, y, z'
loop_
 _atom_site_type_symbol
 _atom_site_label
 _atom_site_symmetry_multiplicity
 _atom_site_fract_x
 _atom_site_fract_y
 _atom_site_fract_z
 _atom_site_occupancy
  P  P0  1  0.00461750  0.99433950  0.25063300  1
  P  P1  1  0.65653850  0.26337750  0.14968000  1
  P  P2  1  0.15653850  0.23662250  0.64968000  1
  P  P3  1  0.83821900  0.76468300  0.35076700  1
  P  P4  1  0.33821900  0.73531700  0.85076700  1
  P  P5  1  0.00461750  0.00566050  0.75063300  1
  P  P6  1  0.50461750  0.49433950  0.25063300  1
  P  P7  1  0.15653850  0.76337750  0.14968000  1
  P  P8  1  0.65653850  0.73662250  0.64968000  1
  P  P9  1  0.33821900  0.26468300  0.35076700  1
  P  P10  1  0.83821900  0.23531700  0.85076700  1
  P  P11  1  0.50461750  0.50566050  0.75063300  1
  N  N12  1  0.07790650  0.76929850  0.22161800  1
  N  N13  1  0.89946350  0.17643050  0.06386600  1
  N  N14  1  0.09568450  0.18637250  0.43467400  1
  N  N15  1  0.07790650  0.23070150  0.72161800  1
  N  N16  1  0.89946350  0.82356950  0.56386600  1
  N  N17  1  0.09568450  0.81362750  0.93467400  1
  N  N18  1  0.57790650  0.26929850  0.22161800  1
  N  N19  1  0.39946350  0.67643050  0.06386600  1
  N  N20  1  0.59568450  0.68637250  0.43467400  1
  N  N21  1  0.57790650  0.73070150  0.72161800  1
  N  N22  1  0.39946350  0.32356950  0.56386600  1
  N  N23  1  0.59568450  0.31362750  0.93467400  1
  O  O24  1  0.92315600  0.78446600  0.28750800  1
  O  O25  1  0.71513650  0.94449750  0.19531600  1
  O  O26  1  0.21513650  0.55550250  0.69531600  1
  O  O27  1  0.78928350  0.44570150  0.29593900  1
  O  O28  1  0.28928350  0.05429850  0.79593900  1
  O  O29  1  0.92315600  0.21553400  0.78750800  1
  O  O30  1  0.42315600  0.28446600  0.28750800  1
  O  O31  1  0.21513650  0.44449750  0.19531600  1
  O  O32  1  0.71513650  0.05550250  0.69531600  1
  O  O33  1  0.28928350  0.94570150  0.29593900  1
  O  O34  1  0.78928350  0.55429850  0.79593900  1
  O  O35  1  0.42315600  0.71553400  0.78750800  1
