# generated using pymatgen
data_Ca2Bi10O17
_symmetry_space_group_name_H-M   'P 1'
_cell_length_a   13.52291200
_cell_length_b   8.09026800
_cell_length_c   9.87009890
_cell_angle_alpha   90.00000000
_cell_angle_beta   100.82995693
_cell_angle_gamma   90.00000000
_symmetry_Int_Tables_number   1
_chemical_formula_structural   Ca2Bi10O17
_chemical_formula_sum   'Ca4 Bi20 O34'
_cell_volume   1060.59546246
_cell_formula_units_Z   2
loop_
 _symmetry_equiv_pos_site_id
 _symmetry_equiv_pos_as_xyz
  1  'x, y, z'
loop_
 _atom_site_type_symbol
 _atom_site_label
 _atom_site_symmetry_multiplicity
 _atom_site_fract_x
 _atom_site_fract_y
 _atom_site_fract_z
 _atom_site_occupancy
  Ca  Ca0  1  0.99543400  0.00000000  0.98339700  1
  Ca  Ca1  1  0.49672800  0.00000000  0.97946900  1
  Ca  Ca2  1  0.49543400  0.50000000  0.98339700  1
  Ca  Ca3  1  0.99672800  0.50000000  0.97946900  1
  Bi  Bi4  1  0.12425600  0.00000000  0.68161000  1
  Bi  Bi5  1  0.62250200  0.00000000  0.67934200  1
  Bi  Bi6  1  0.61264900  0.73599700  0.31396500  1
  Bi  Bi7  1  0.61264900  0.26400300  0.31396500  1
  Bi  Bi8  1  0.25048000  0.75094700  0.98266600  1
  Bi  Bi9  1  0.25048000  0.24905300  0.98266600  1
  Bi  Bi10  1  0.36374450  0.73235250  0.67542800  1
  Bi  Bi11  1  0.36374450  0.26764750  0.67542800  1
  Bi  Bi12  1  0.39053400  0.00000000  0.32355600  1
  Bi  Bi13  1  0.85256100  0.00000000  0.31774100  1
  Bi  Bi14  1  0.62425600  0.50000000  0.68161000  1
  Bi  Bi15  1  0.12250200  0.50000000  0.67934200  1
  Bi  Bi16  1  0.11264900  0.23599700  0.31396500  1
  Bi  Bi17  1  0.11264900  0.76400300  0.31396500  1
  Bi  Bi18  1  0.75048000  0.25094700  0.98266600  1
  Bi  Bi19  1  0.75048000  0.74905300  0.98266600  1
  Bi  Bi20  1  0.86374450  0.23235250  0.67542800  1
  Bi  Bi21  1  0.86374450  0.76764750  0.67542800  1
  Bi  Bi22  1  0.89053400  0.50000000  0.32355600  1
  Bi  Bi23  1  0.35256100  0.50000000  0.31774100  1
  O  O24  1  0.16581600  0.00000000  0.90077100  1
  O  O25  1  0.66125000  0.00000000  0.90200800  1
  O  O26  1  0.61823000  0.00000000  0.29261300  1
  O  O27  1  0.69928150  0.25563350  0.73138600  1
  O  O28  1  0.69928150  0.74436650  0.73138600  1
  O  O29  1  0.58318600  0.72691500  0.10192100  1
  O  O30  1  0.58318600  0.27308500  0.10192100  1
  O  O31  1  0.77793300  0.00000000  0.60454200  1
  O  O32  1  0.23595000  0.00000000  0.34439200  1
  O  O33  1  0.39139500  0.73790500  0.89406400  1
  O  O34  1  0.39139500  0.26209500  0.89406400  1
  O  O35  1  0.45881900  0.00000000  0.72403200  1
  O  O36  1  0.35996400  0.00000000  0.10688600  1
  O  O37  1  0.85014300  0.00000000  0.10651000  1
  O  O38  1  0.97293800  0.00000000  0.72238900  1
  O  O39  1  0.45208550  0.28771350  0.35758400  1
  O  O40  1  0.45208550  0.71228650  0.35758400  1
  O  O41  1  0.66581600  0.50000000  0.90077100  1
  O  O42  1  0.16125000  0.50000000  0.90200800  1
  O  O43  1  0.11823000  0.50000000  0.29261300  1
  O  O44  1  0.19928150  0.75563350  0.73138600  1
  O  O45  1  0.19928150  0.24436650  0.73138600  1
  O  O46  1  0.08318600  0.22691500  0.10192100  1
  O  O47  1  0.08318600  0.77308500  0.10192100  1
  O  O48  1  0.27793300  0.50000000  0.60454200  1
  O  O49  1  0.73595000  0.50000000  0.34439200  1
  O  O50  1  0.89139500  0.23790500  0.89406400  1
  O  O51  1  0.89139500  0.76209500  0.89406400  1
  O  O52  1  0.95881900  0.50000000  0.72403200  1
  O  O53  1  0.85996400  0.50000000  0.10688600  1
  O  O54  1  0.35014300  0.50000000  0.10651000  1
  O  O55  1  0.47293800  0.50000000  0.72238900  1
  O  O56  1  0.95208550  0.78771350  0.35758400  1
  O  O57  1  0.95208550  0.21228650  0.35758400  1
