# generated using pymatgen
data_Na2B4H8O11
_symmetry_space_group_name_H-M   'P 1'
_cell_length_a   7.12312100
_cell_length_b   9.19362600
_cell_length_c   15.79437568
_cell_angle_alpha   90.00000000
_cell_angle_beta   108.92466275
_cell_angle_gamma   90.00000000
_symmetry_Int_Tables_number   1
_chemical_formula_structural   Na2B4H8O11
_chemical_formula_sum   'Na8 B16 H32 O44'
_cell_volume   978.42128186
_cell_formula_units_Z   4
loop_
 _symmetry_equiv_pos_site_id
 _symmetry_equiv_pos_as_xyz
  1  'x, y, z'
loop_
 _atom_site_type_symbol
 _atom_site_label
 _atom_site_symmetry_multiplicity
 _atom_site_fract_x
 _atom_site_fract_y
 _atom_site_fract_z
 _atom_site_occupancy
  Na  Na0  1  0.68053500  0.53582000  0.68993600  1
  Na  Na1  1  0.31946500  0.03582000  0.81006400  1
  Na  Na2  1  0.31946500  0.46418000  0.31006400  1
  Na  Na3  1  0.68053500  0.96418000  0.18993600  1
  Na  Na4  1  0.81175700  0.62919600  0.92756000  1
  Na  Na5  1  0.18824300  0.12919600  0.57244000  1
  Na  Na6  1  0.18824300  0.37080400  0.07244000  1
  Na  Na7  1  0.81175700  0.87080400  0.42756000  1
  B  B8  1  0.44598700  0.82932000  0.57897500  1
  B  B9  1  0.55401300  0.32932000  0.92102500  1
  B  B10  1  0.55401300  0.17068000  0.42102500  1
  B  B11  1  0.44598700  0.67068000  0.07897500  1
  B  B12  1  0.44616800  0.76647600  0.73234100  1
  B  B13  1  0.55383200  0.26647600  0.76765900  1
  B  B14  1  0.55383200  0.23352400  0.26765900  1
  B  B15  1  0.44616800  0.73352400  0.23234100  1
  B  B16  1  0.42781100  0.51782900  0.80052000  1
  B  B17  1  0.57218900  0.01782900  0.69948000  1
  B  B18  1  0.57218900  0.48217100  0.19948000  1
  B  B19  1  0.42781100  0.98217100  0.30052000  1
  B  B20  1  0.13279500  0.68322700  0.75863700  1
  B  B21  1  0.86720500  0.18322700  0.74136300  1
  B  B22  1  0.86720500  0.31677300  0.24136300  1
  B  B23  1  0.13279500  0.81677300  0.25863700  1
  H  H24  1  0.73663600  0.89824700  0.86689300  1
  H  H25  1  0.26336400  0.39824700  0.63310700  1
  H  H26  1  0.26336400  0.10175300  0.13310700  1
  H  H27  1  0.73663600  0.60175300  0.36689300  1
  H  H28  1  0.89065200  0.80582000  0.74837000  1
  H  H29  1  0.10934800  0.30582000  0.75163000  1
  H  H30  1  0.10934800  0.19418000  0.25163000  1
  H  H31  1  0.89065200  0.69418000  0.24837000  1
  H  H32  1  0.05001400  0.87539400  0.62601900  1
  H  H33  1  0.94998600  0.37539400  0.87398100  1
  H  H34  1  0.94998600  0.12460600  0.37398100  1
  H  H35  1  0.05001400  0.62460600  0.12601900  1
  H  H36  1  0.43587600  0.62840900  0.95439700  1
  H  H37  1  0.56412400  0.12840900  0.54560300  1
  H  H38  1  0.56412400  0.37159100  0.04560300  1
  H  H39  1  0.43587600  0.87159100  0.45439700  1
  H  H40  1  0.88057200  0.98268700  0.62127900  1
  H  H41  1  0.11942800  0.48268700  0.87872100  1
  H  H42  1  0.11942800  0.01731300  0.37872100  1
  H  H43  1  0.88057200  0.51731300  0.12127900  1
  H  H44  1  0.29286700  0.88318000  0.95568900  1
  H  H45  1  0.70713300  0.38318000  0.54431100  1
  H  H46  1  0.70713300  0.11682000  0.04431100  1
  H  H47  1  0.29286700  0.61682000  0.45568900  1
  H  H48  1  0.78555700  0.53048500  0.51518200  1
  H  H49  1  0.21444300  0.03048500  0.98481800  1
  H  H50  1  0.21444300  0.46951500  0.48481800  1
  H  H51  1  0.78555700  0.96951500  0.01518200  1
  H  H52  1  0.96681900  0.91587300  0.92251500  1
  H  H53  1  0.03318100  0.41587300  0.57748500  1
  H  H54  1  0.03318100  0.08412700  0.07748500  1
  H  H55  1  0.96681900  0.58412700  0.42251500  1
  O  O56  1  0.48526700  0.97305000  0.60278300  1
  O  O57  1  0.51473300  0.47305000  0.89721700  1
  O  O58  1  0.51473300  0.02695000  0.39721700  1
  O  O59  1  0.48526700  0.52695000  0.10278300  1
  O  O60  1  0.55697300  0.90170600  0.76059000  1
  O  O61  1  0.44302700  0.40170600  0.73941000  1
  O  O62  1  0.44302700  0.09829400  0.23941000  1
  O  O63  1  0.55697300  0.59829400  0.26059000  1
  O  O64  1  0.23194700  0.79179400  0.73108000  1
  O  O65  1  0.76805300  0.29179400  0.76892000  1
  O  O66  1  0.76805300  0.20820600  0.26892000  1
  O  O67  1  0.23194700  0.70820600  0.23108000  1
  O  O68  1  0.53438100  0.64938400  0.79293000  1
  O  O69  1  0.46561900  0.14938400  0.70707000  1
  O  O70  1  0.46561900  0.35061600  0.20707000  1
  O  O71  1  0.53438100  0.85061600  0.29293000  1
  O  O72  1  0.21096700  0.54826500  0.78646300  1
  O  O73  1  0.78903300  0.04826500  0.71353700  1
  O  O74  1  0.78903300  0.45173500  0.21353700  1
  O  O75  1  0.21096700  0.95173500  0.28646300  1
  O  O76  1  0.93941700  0.70588800  0.75943700  1
  O  O77  1  0.06058300  0.20588800  0.74056300  1
  O  O78  1  0.06058300  0.29411200  0.24056300  1
  O  O79  1  0.93941700  0.79411200  0.25943700  1
  O  O80  1  0.41270600  0.71069200  0.99046400  1
  O  O81  1  0.58729400  0.21069200  0.50953600  1
  O  O82  1  0.58729400  0.28930800  0.00953600  1
  O  O83  1  0.41270600  0.78930800  0.49046400  1
  O  O84  1  0.21460200  0.97214000  0.93155300  1
  O  O85  1  0.78539800  0.47214000  0.56844700  1
  O  O86  1  0.78539800  0.02786000  0.06844700  1
  O  O87  1  0.21460200  0.52786000  0.43155300  1
  O  O88  1  0.43533200  0.72500700  0.63861900  1
  O  O89  1  0.56466800  0.22500700  0.86138100  1
  O  O90  1  0.56466800  0.27499300  0.36138100  1
  O  O91  1  0.43533200  0.77499300  0.13861900  1
  O  O92  1  0.95574000  0.94187200  0.58392100  1
  O  O93  1  0.04426000  0.44187200  0.91607900  1
  O  O94  1  0.04426000  0.05812800  0.41607900  1
  O  O95  1  0.95574000  0.55812800  0.08392100  1
  O  O96  1  0.83833600  0.88119400  0.92714600  1
  O  O97  1  0.16166400  0.38119400  0.57285400  1
  O  O98  1  0.16166400  0.11880600  0.07285400  1
  O  O99  1  0.83833600  0.61880600  0.42714600  1
