# generated using pymatgen
data_Al2CdTe4
_symmetry_space_group_name_H-M   'P 1'
_cell_length_a   6.29042200
_cell_length_b   6.29042200
_cell_length_c   11.95651200
_cell_angle_alpha   90.00000000
_cell_angle_beta   90.00000000
_cell_angle_gamma   90.00000000
_symmetry_Int_Tables_number   1
_chemical_formula_structural   Al2CdTe4
_chemical_formula_sum   'Al4 Cd2 Te8'
_cell_volume   473.11211280
_cell_formula_units_Z   2
loop_
 _symmetry_equiv_pos_site_id
 _symmetry_equiv_pos_as_xyz
  1  'x, y, z'
loop_
 _atom_site_type_symbol
 _atom_site_label
 _atom_site_symmetry_multiplicity
 _atom_site_fract_x
 _atom_site_fract_y
 _atom_site_fract_z
 _atom_site_occupancy
  Al  Al0  1  0.50000000  0.00000000  0.25000000  1
  Al  Al1  1  0.50000000  0.50000000  0.00000000  1
  Al  Al2  1  0.00000000  0.50000000  0.75000000  1
  Al  Al3  1  0.00000000  0.00000000  0.50000000  1
  Cd  Cd4  1  0.00000000  0.00000000  0.00000000  1
  Cd  Cd5  1  0.50000000  0.50000000  0.50000000  1
  Te  Te6  1  0.74274150  0.27271250  0.13742150  1
  Te  Te7  1  0.77271250  0.75725850  0.36257850  1
  Te  Te8  1  0.22728750  0.24274150  0.36257850  1
  Te  Te9  1  0.25725850  0.72728750  0.13742150  1
  Te  Te10  1  0.24274150  0.77271250  0.63742150  1
  Te  Te11  1  0.27271250  0.25725850  0.86257850  1
  Te  Te12  1  0.72728750  0.74274150  0.86257850  1
  Te  Te13  1  0.75725850  0.22728750  0.63742150  1
