# generated using pymatgen
data_CeTh9O20
_symmetry_space_group_name_H-M   'P 1'
_cell_length_a   6.86409000
_cell_length_b   7.92382882
_cell_length_c   8.85943448
_cell_angle_alpha   102.92325816
_cell_angle_beta   97.42290973
_cell_angle_gamma   106.77408312
_symmetry_Int_Tables_number   1
_chemical_formula_structural   CeTh9O20
_chemical_formula_sum   'Ce1 Th9 O20'
_cell_volume   439.87716644
_cell_formula_units_Z   1
loop_
 _symmetry_equiv_pos_site_id
 _symmetry_equiv_pos_as_xyz
  1  'x, y, z'
loop_
 _atom_site_type_symbol
 _atom_site_label
 _atom_site_symmetry_multiplicity
 _atom_site_fract_x
 _atom_site_fract_y
 _atom_site_fract_z
 _atom_site_occupancy
  Ce  Ce0  1  0.00000000  0.50000000  0.00000000  1
  Th  Th1  1  0.19949800  0.89911100  0.39891900  1
  Th  Th2  1  0.19948800  0.40004700  0.39888200  1
  Th  Th3  1  0.59974900  0.69922200  0.19938400  1
  Th  Th4  1  0.60114000  0.20074700  0.19967900  1
  Th  Th5  1  0.00000000  0.00000000  0.00000000  1
  Th  Th6  1  0.80050200  0.10088900  0.60108100  1
  Th  Th7  1  0.80051200  0.59995300  0.60111800  1
  Th  Th8  1  0.40025100  0.30077800  0.80061600  1
  Th  Th9  1  0.39886000  0.79925300  0.80032100  1
  O  O10  1  0.84986000  0.32499600  0.44985400  1
  O  O11  1  0.15014000  0.67500400  0.55014600  1
  O  O12  1  0.15005700  0.17511100  0.55018300  1
  O  O13  1  0.84994300  0.82488900  0.44981700  1
  O  O14  1  0.54976700  0.47499000  0.34974800  1
  O  O15  1  0.54997100  0.97481600  0.34979300  1
  O  O16  1  0.24764400  0.62363200  0.24749300  1
  O  O17  1  0.95023000  0.77234300  0.14835600  1
  O  O18  1  0.24949900  0.12496000  0.24972600  1
  O  O19  1  0.95035200  0.27702600  0.14854400  1
  O  O20  1  0.34687100  0.57421100  0.95057500  1
  O  O21  1  0.34966900  0.07507000  0.94989200  1
  O  O22  1  0.04977000  0.22765700  0.85164400  1
  O  O23  1  0.65033100  0.92493000  0.05010800  1
  O  O24  1  0.65312900  0.42578900  0.04942500  1
  O  O25  1  0.04964800  0.72297400  0.85145600  1
  O  O26  1  0.45023300  0.52501000  0.65025200  1
  O  O27  1  0.45002900  0.02518400  0.65020700  1
  O  O28  1  0.75050100  0.87504000  0.75027400  1
  O  O29  1  0.75235600  0.37636800  0.75250700  1
