# generated using pymatgen
data_Zr2N2O
_symmetry_space_group_name_H-M   'P 1'
_cell_length_a   8.86223392
_cell_length_b   8.87573839
_cell_length_c   8.88088400
_cell_angle_alpha   109.63509910
_cell_angle_beta   109.45969405
_cell_angle_gamma   109.24776415
_symmetry_Int_Tables_number   1
_chemical_formula_structural   Zr2N2O
_chemical_formula_sum   'Zr16 N16 O8'
_cell_volume   538.21871593
_cell_formula_units_Z   8
loop_
 _symmetry_equiv_pos_site_id
 _symmetry_equiv_pos_as_xyz
  1  'x, y, z'
loop_
 _atom_site_type_symbol
 _atom_site_label
 _atom_site_symmetry_multiplicity
 _atom_site_fract_x
 _atom_site_fract_y
 _atom_site_fract_z
 _atom_site_occupancy
  Zr  Zr0  1  0.54676900  0.78538300  0.24654100  1
  Zr  Zr1  1  0.00604100  0.00673800  0.00439900  1
  Zr  Zr2  1  0.78870800  0.25735300  0.96583800  1
  Zr  Zr3  1  0.49914000  0.99841300  0.49795300  1
  Zr  Zr4  1  0.28413800  0.25008900  0.46961400  1
  Zr  Zr5  1  0.99771900  0.50659100  0.50138700  1
  Zr  Zr6  1  0.96894900  0.71469600  0.74295600  1
  Zr  Zr7  1  0.74128700  0.02552000  0.70695200  1
  Zr  Zr8  1  0.25350200  0.96857300  0.28694500  1
  Zr  Zr9  1  0.74881200  0.53615700  0.21355100  1
  Zr  Zr10  1  0.24595500  0.45931700  0.79260500  1
  Zr  Zr11  1  0.03129300  0.29187000  0.24487600  1
  Zr  Zr12  1  0.50879200  0.50965000  0.99159100  1
  Zr  Zr13  1  0.72021100  0.74890000  0.53579900  1
  Zr  Zr14  1  0.21431200  0.74725900  0.03586200  1
  Zr  Zr15  1  0.45287700  0.21100100  0.75996700  1
  N  N16  1  0.77199900  0.76439300  0.26778800  1
  N  N17  1  0.48121700  0.53117000  0.24412300  1
  N  N18  1  0.22816500  0.96925800  0.54744200  1
  N  N19  1  0.95129700  0.48775200  0.27721200  1
  N  N20  1  0.53135400  0.03885100  0.22816600  1
  N  N21  1  0.46610900  0.95639100  0.77169900  1
  N  N22  1  0.72958700  0.45519600  0.01294800  1
  N  N23  1  0.96781200  0.73666000  0.48780200  1
  N  N24  1  0.98587000  0.22516000  0.04614300  1
  N  N25  1  0.77116600  0.03322800  0.45418700  1
  N  N26  1  0.73828700  0.77363000  0.77595100  1
  N  N27  1  0.04954100  0.51146200  0.72109000  1
  N  N28  1  0.23608000  0.01158400  0.03750900  1
  N  N29  1  0.51572000  0.46556200  0.75990100  1
  N  N30  1  0.27169800  0.54414600  0.98947400  1
  N  N31  1  0.22674400  0.23408800  0.72726300  1
  O  O32  1  0.54621600  0.27168600  0.46280900  1
  O  O33  1  0.27074800  0.72512600  0.26287400  1
  O  O34  1  0.01331500  0.77136200  0.95630600  1
  O  O35  1  0.25537200  0.22450900  0.23238700  1
  O  O36  1  0.76201400  0.99035200  0.96211400  1
  O  O37  1  0.45376700  0.72751300  0.53320900  1
  O  O38  1  0.73309700  0.27239800  0.73467900  1
  O  O39  1  0.03432200  0.26101400  0.51008500  1
