# generated using pymatgen
data_P5H5N6(Cl4O)2
_symmetry_space_group_name_H-M   'P 1'
_cell_length_a   7.99416900
_cell_length_b   11.30877555
_cell_length_c   11.77782228
_cell_angle_alpha   99.59470020
_cell_angle_beta   100.56222372
_cell_angle_gamma   100.69758652
_symmetry_Int_Tables_number   1
_chemical_formula_structural   P5H5N6(Cl4O)2
_chemical_formula_sum   'P10 H10 N12 Cl16 O4'
_cell_volume   1006.08727351
_cell_formula_units_Z   2
loop_
 _symmetry_equiv_pos_site_id
 _symmetry_equiv_pos_as_xyz
  1  'x, y, z'
loop_
 _atom_site_type_symbol
 _atom_site_label
 _atom_site_symmetry_multiplicity
 _atom_site_fract_x
 _atom_site_fract_y
 _atom_site_fract_z
 _atom_site_occupancy
  P  P0  1  0.95496700  0.76103500  0.65891600  1
  P  P1  1  0.04503300  0.23896500  0.34108400  1
  P  P2  1  0.24733500  0.65349800  0.77251300  1
  P  P3  1  0.75266500  0.34650200  0.22748700  1
  P  P4  1  0.07009600  0.78723500  0.90913600  1
  P  P5  1  0.92990400  0.21276500  0.09086400  1
  P  P6  1  0.31512600  0.67671200  0.36474900  1
  P  P7  1  0.68487400  0.32328800  0.63525100  1
  P  P8  1  0.61184500  0.84065300  0.31298800  1
  P  P9  1  0.38815500  0.15934700  0.68701200  1
  H  H10  1  0.15975400  0.66314400  0.57875300  1
  H  H11  1  0.84024600  0.33685600  0.42124700  1
  H  H12  1  0.05194000  0.96469100  0.64474500  1
  H  H13  1  0.94806000  0.03530900  0.35525500  1
  H  H14  1  0.94021300  0.87001800  0.51034500  1
  H  H15  1  0.05978700  0.12998200  0.48965500  1
  H  H16  1  0.77257300  0.57006400  0.56053300  1
  H  H17  1  0.22742700  0.42993600  0.43946700  1
  H  H18  1  0.69928500  0.69472300  0.51561500  1
  H  H19  1  0.30071500  0.30527700  0.48438500  1
  N  N20  1  0.12514200  0.68722700  0.65934000  1
  N  N21  1  0.87485800  0.31277300  0.34066000  1
  N  N22  1  0.20089300  0.69685800  0.89426100  1
  N  N23  1  0.79910700  0.30314200  0.10573900  1
  N  N24  1  0.94597800  0.80174600  0.79407700  1
  N  N25  1  0.05402200  0.19825400  0.20592300  1
  N  N26  1  0.97660600  0.88001800  0.60025600  1
  N  N27  1  0.02339400  0.11998200  0.39974400  1
  N  N28  1  0.79288600  0.66344700  0.56667600  1
  N  N29  1  0.20711400  0.33655300  0.43332400  1
  N  N30  1  0.51142100  0.74823300  0.37967600  1
  N  N31  1  0.48857900  0.25176700  0.62032400  1
  Cl  Cl32  1  0.23267500  0.47206000  0.73976800  1
  Cl  Cl33  1  0.76732500  0.52794000  0.26023200  1
  Cl  Cl34  1  0.49876200  0.71982800  0.77385900  1
  Cl  Cl35  1  0.50123800  0.28017200  0.22614100  1
  Cl  Cl36  1  0.92604100  0.73183700  0.02068100  1
  Cl  Cl37  1  0.07395900  0.26816300  0.97931900  1
  Cl  Cl38  1  0.21245200  0.95314400  0.00159800  1
  Cl  Cl39  1  0.78754800  0.04685600  0.99840200  1
  Cl  Cl40  1  0.14900800  0.78891700  0.33443700  1
  Cl  Cl41  1  0.85099200  0.21108300  0.66556300  1
  Cl  Cl42  1  0.24306300  0.54666100  0.21154900  1
  Cl  Cl43  1  0.75693700  0.45333900  0.78845100  1
  Cl  Cl44  1  0.53441900  0.77858000  0.13510200  1
  Cl  Cl45  1  0.46558100  0.22142000  0.86489800  1
  Cl  Cl46  1  0.53077200  0.00215300  0.33416900  1
  Cl  Cl47  1  0.46922800  0.99784700  0.66583100  1
  O  O48  1  0.27683500  0.61510300  0.46316100  1
  O  O49  1  0.72316500  0.38489700  0.53683900  1
  O  O50  1  0.80589600  0.86771300  0.34870700  1
  O  O51  1  0.19410400  0.13228700  0.65129300  1
