# generated using pymatgen
data_Fe5(OF4)2
_symmetry_space_group_name_H-M   'P 1'
_cell_length_a   4.80366100
_cell_length_b   5.80071705
_cell_length_c   13.54452586
_cell_angle_alpha   78.84273316
_cell_angle_beta   89.14657620
_cell_angle_gamma   88.86104545
_symmetry_Int_Tables_number   1
_chemical_formula_structural   Fe5(OF4)2
_chemical_formula_sum   'Fe10 O4 F16'
_cell_volume   370.18399915
_cell_formula_units_Z   2
loop_
 _symmetry_equiv_pos_site_id
 _symmetry_equiv_pos_as_xyz
  1  'x, y, z'
loop_
 _atom_site_type_symbol
 _atom_site_label
 _atom_site_symmetry_multiplicity
 _atom_site_fract_x
 _atom_site_fract_y
 _atom_site_fract_z
 _atom_site_occupancy
  Fe  Fe0  1  0.48065700  0.50205000  0.98982300  1
  Fe  Fe1  1  0.52704500  0.28997600  0.59732200  1
  Fe  Fe2  1  0.48984700  0.88754700  0.80275900  1
  Fe  Fe3  1  0.50982100  0.69272700  0.39571800  1
  Fe  Fe4  1  0.51047100  0.09501400  0.19768900  1
  Fe  Fe5  1  0.99800500  0.81347900  0.59434800  1
  Fe  Fe6  1  0.96362000  0.61860100  0.20497300  1
  Fe  Fe7  1  0.02113900  0.40718500  0.80246100  1
  Fe  Fe8  1  0.97223900  0.21897500  0.40217400  1
  Fe  Fe9  1  0.98939400  0.99351900  0.00963900  1
  O  O10  1  0.80488800  0.90445100  0.14646000  1
  O  O11  1  0.80910100  0.50934200  0.33861600  1
  O  O12  1  0.80327500  0.13374100  0.53462200  1
  O  O13  1  0.30790300  0.57843900  0.86826100  1
  F  F14  1  0.81005700  0.72409700  0.73588500  1
  F  F15  1  0.79239000  0.31638300  0.94207000  1
  F  F16  1  0.70318000  0.80245300  0.94620300  1
  F  F17  1  0.68513700  0.60915700  0.54552700  1
  F  F18  1  0.70774300  0.02258300  0.34352000  1
  F  F19  1  0.70339800  0.42741100  0.13088000  1
  F  F20  1  0.69373700  0.22639100  0.73448300  1
  F  F21  1  0.31497200  0.99775100  0.65473000  1
  F  F22  1  0.28974700  0.77262300  0.25946700  1
  F  F23  1  0.30552300  0.19636600  0.05454900  1
  F  F24  1  0.29816700  0.37126100  0.46586300  1
  F  F25  1  0.18718400  0.07767200  0.86158200  1
  F  F26  1  0.20728400  0.65940500  0.07153900  1
  F  F27  1  0.20145100  0.89690900  0.45254700  1
  F  F28  1  0.21500300  0.47725300  0.65281500  1
  F  F29  1  0.19762300  0.27723800  0.26347500  1
