# generated using pymatgen
data_La2Zn2O5
_symmetry_space_group_name_H-M   'P 1'
_cell_length_a   5.53523400
_cell_length_b   5.82010800
_cell_length_c   15.85939500
_cell_angle_alpha   90.00000000
_cell_angle_beta   90.00000000
_cell_angle_gamma   90.00000000
_symmetry_Int_Tables_number   1
_chemical_formula_structural   La2Zn2O5
_chemical_formula_sum   'La8 Zn8 O20'
_cell_volume   510.92087213
_cell_formula_units_Z   4
loop_
 _symmetry_equiv_pos_site_id
 _symmetry_equiv_pos_as_xyz
  1  'x, y, z'
loop_
 _atom_site_type_symbol
 _atom_site_label
 _atom_site_symmetry_multiplicity
 _atom_site_fract_x
 _atom_site_fract_y
 _atom_site_fract_z
 _atom_site_occupancy
  La  La0  1  0.99668700  0.47992900  0.88938500  1
  La  La1  1  0.99668700  0.47992900  0.61061500  1
  La  La2  1  0.50331300  0.97992900  0.38938500  1
  La  La3  1  0.50331300  0.97992900  0.11061500  1
  La  La4  1  0.49668700  0.02007100  0.88938500  1
  La  La5  1  0.49668700  0.02007100  0.61061500  1
  La  La6  1  0.00331300  0.52007100  0.38938500  1
  La  La7  1  0.00331300  0.52007100  0.11061500  1
  Zn  Zn8  1  0.00000000  0.00000000  0.00000000  1
  Zn  Zn9  1  0.00000000  0.00000000  0.50000000  1
  Zn  Zn10  1  0.04478000  0.05719300  0.25000000  1
  Zn  Zn11  1  0.45522000  0.55719300  0.75000000  1
  Zn  Zn12  1  0.50000000  0.50000000  0.00000000  1
  Zn  Zn13  1  0.50000000  0.50000000  0.50000000  1
  Zn  Zn14  1  0.54478000  0.44280700  0.25000000  1
  Zn  Zn15  1  0.95522000  0.94280700  0.75000000  1
  O  O16  1  0.02166000  0.08675900  0.85859200  1
  O  O17  1  0.02166000  0.08675900  0.64140800  1
  O  O18  1  0.08193800  0.61477000  0.75000000  1
  O  O19  1  0.24519000  0.25396800  0.48219400  1
  O  O20  1  0.24519000  0.25396800  0.01780600  1
  O  O21  1  0.25481000  0.75396800  0.51780600  1
  O  O22  1  0.25481000  0.75396800  0.98219400  1
  O  O23  1  0.41806200  0.11477000  0.25000000  1
  O  O24  1  0.47834000  0.58675900  0.35859200  1
  O  O25  1  0.47834000  0.58675900  0.14140800  1
  O  O26  1  0.52166000  0.41324100  0.85859200  1
  O  O27  1  0.52166000  0.41324100  0.64140800  1
  O  O28  1  0.58193800  0.88523000  0.75000000  1
  O  O29  1  0.74519000  0.24603200  0.01780600  1
  O  O30  1  0.74519000  0.24603200  0.48219400  1
  O  O31  1  0.75481000  0.74603200  0.98219400  1
  O  O32  1  0.75481000  0.74603200  0.51780600  1
  O  O33  1  0.91806200  0.38523000  0.25000000  1
  O  O34  1  0.97834000  0.91324100  0.35859200  1
  O  O35  1  0.97834000  0.91324100  0.14140800  1
