# generated using pymatgen
data_Ba3Y2O6
_symmetry_space_group_name_H-M   'P 1'
_cell_length_a   3.59433100
_cell_length_b   12.52616700
_cell_length_c   18.15577300
_cell_angle_alpha   90.00000000
_cell_angle_beta   90.00000000
_cell_angle_gamma   90.00000000
_symmetry_Int_Tables_number   1
_chemical_formula_structural   Ba3Y2O6
_chemical_formula_sum   'Ba12 Y8 O24'
_cell_volume   817.43082390
_cell_formula_units_Z   4
loop_
 _symmetry_equiv_pos_site_id
 _symmetry_equiv_pos_as_xyz
  1  'x, y, z'
loop_
 _atom_site_type_symbol
 _atom_site_label
 _atom_site_symmetry_multiplicity
 _atom_site_fract_x
 _atom_site_fract_y
 _atom_site_fract_z
 _atom_site_occupancy
  Ba  Ba0  1  0.50000000  0.10440400  0.84581500  1
  Ba  Ba1  1  0.50000000  0.13397600  0.44784100  1
  Ba  Ba2  1  0.50000000  0.15141000  0.23274000  1
  Ba  Ba3  1  0.50000000  0.34859000  0.73274000  1
  Ba  Ba4  1  0.50000000  0.36602400  0.94784100  1
  Ba  Ba5  1  0.50000000  0.39559600  0.34581500  1
  Ba  Ba6  1  0.50000000  0.60440400  0.65418500  1
  Ba  Ba7  1  0.50000000  0.63397600  0.05215900  1
  Ba  Ba8  1  0.50000000  0.65141000  0.26726000  1
  Ba  Ba9  1  0.50000000  0.84859000  0.76726000  1
  Ba  Ba10  1  0.50000000  0.86602400  0.55215900  1
  Ba  Ba11  1  0.50000000  0.89559600  0.15418500  1
  Y  Y12  1  0.00000000  0.11325000  0.63860500  1
  Y  Y13  1  0.00000000  0.12885400  0.04081500  1
  Y  Y14  1  0.00000000  0.37114600  0.54081500  1
  Y  Y15  1  0.00000000  0.38675000  0.13860500  1
  Y  Y16  1  0.00000000  0.61325000  0.86139500  1
  Y  Y17  1  0.00000000  0.62885400  0.45918500  1
  Y  Y18  1  0.00000000  0.87114600  0.95918500  1
  Y  Y19  1  0.00000000  0.88675000  0.36139500  1
  O  O20  1  0.50000000  0.00000000  0.00000000  1
  O  O21  1  0.00000000  0.00000000  0.50000000  1
  O  O22  1  0.50000000  0.98791000  0.33897400  1
  O  O23  1  0.00000000  0.05654900  0.15202600  1
  O  O24  1  0.00000000  0.19407300  0.74190500  1
  O  O25  1  0.50000000  0.24647900  0.58298700  1
  O  O26  1  0.00000000  0.20874100  0.93207700  1
  O  O27  1  0.00000000  0.29125900  0.43207700  1
  O  O28  1  0.50000000  0.25352100  0.08298700  1
  O  O29  1  0.00000000  0.30592700  0.24190500  1
  O  O30  1  0.00000000  0.44345100  0.65202600  1
  O  O31  1  0.50000000  0.51209000  0.83897400  1
  O  O32  1  0.00000000  0.50000000  0.00000000  1
  O  O33  1  0.50000000  0.50000000  0.50000000  1
  O  O34  1  0.50000000  0.48791000  0.16102600  1
  O  O35  1  0.00000000  0.55654900  0.34797400  1
  O  O36  1  0.00000000  0.69407300  0.75809500  1
  O  O37  1  0.50000000  0.74647900  0.91701300  1
  O  O38  1  0.00000000  0.70874100  0.56792300  1
  O  O39  1  0.00000000  0.79125900  0.06792300  1
  O  O40  1  0.50000000  0.75352100  0.41701300  1
  O  O41  1  0.00000000  0.80592700  0.25809500  1
  O  O42  1  0.00000000  0.94345100  0.84797400  1
  O  O43  1  0.50000000  0.01209000  0.66102600  1
