# generated using pymatgen
data_Li2Ta4O11
_symmetry_space_group_name_H-M   'P 1'
_cell_length_a   6.27057394
_cell_length_b   6.27057394
_cell_length_c   36.99253914
_cell_angle_alpha   90.00000000
_cell_angle_beta   90.00000000
_cell_angle_gamma   120.00000000
_symmetry_Int_Tables_number   1
_chemical_formula_structural   Li2Ta4O11
_chemical_formula_sum   'Li12 Ta24 O66'
_cell_volume   1259.67746375
_cell_formula_units_Z   6
loop_
 _symmetry_equiv_pos_site_id
 _symmetry_equiv_pos_as_xyz
  1  'x, y, z'
loop_
 _atom_site_type_symbol
 _atom_site_label
 _atom_site_symmetry_multiplicity
 _atom_site_fract_x
 _atom_site_fract_y
 _atom_site_fract_z
 _atom_site_occupancy
  Li  Li0  1  0.33333333  0.66666667  0.31559267  1
  Li  Li1  1  0.66666667  0.33333333  0.18440733  1
  Li  Li2  1  0.00000000  0.00000000  0.14892600  1
  Li  Li3  1  0.33333333  0.66666667  0.01774067  1
  Li  Li4  1  0.00000000  0.00000000  0.64892600  1
  Li  Li5  1  0.33333333  0.66666667  0.51774067  1
  Li  Li6  1  0.66666667  0.33333333  0.48225933  1
  Li  Li7  1  0.00000000  0.00000000  0.35107400  1
  Li  Li8  1  0.66666667  0.33333333  0.98225933  1
  Li  Li9  1  0.00000000  0.00000000  0.85107400  1
  Li  Li10  1  0.33333333  0.66666667  0.81559267  1
  Li  Li11  1  0.66666667  0.33333333  0.68440733  1
  Ta  Ta12  1  0.66666667  0.97530733  0.08333333  1
  Ta  Ta13  1  0.64197400  0.64197400  0.25000000  1
  Ta  Ta14  1  0.33333333  0.66666667  0.16666667  1
  Ta  Ta15  1  0.30864067  0.33333333  0.08333333  1
  Ta  Ta16  1  0.35802600  0.00000000  0.25000000  1
  Ta  Ta17  1  0.02469267  0.69135933  0.08333333  1
  Ta  Ta18  1  0.00000000  0.00000000  0.00000000  1
  Ta  Ta19  1  0.00000000  0.35802600  0.25000000  1
  Ta  Ta20  1  0.33333333  0.30864067  0.41666667  1
  Ta  Ta21  1  0.30864067  0.97530733  0.58333333  1
  Ta  Ta22  1  1.00000000  0.00000000  0.50000000  1
  Ta  Ta23  1  0.97530733  0.66666667  0.41666667  1
  Ta  Ta24  1  0.02469267  0.33333333  0.58333333  1
  Ta  Ta25  1  0.69135933  0.02469267  0.41666667  1
  Ta  Ta26  1  0.66666667  0.33333333  0.33333333  1
  Ta  Ta27  1  0.66666667  0.69135933  0.58333333  1
  Ta  Ta28  1  0.00000000  0.64197400  0.75000000  1
  Ta  Ta29  1  0.97530733  0.30864067  0.91666667  1
  Ta  Ta30  1  0.66666667  0.33333333  0.83333333  1
  Ta  Ta31  1  0.64197400  0.00000000  0.75000000  1
  Ta  Ta32  1  0.69135933  0.66666667  0.91666667  1
  Ta  Ta33  1  0.35802600  0.35802600  0.75000000  1
  Ta  Ta34  1  0.33333333  0.66666667  0.66666667  1
  Ta  Ta35  1  0.33333333  0.02469267  0.91666667  1
  O  O36  1  0.66666667  0.58102533  0.08333333  1
  O  O37  1  0.24769200  0.24769200  0.25000000  1
  O  O38  1  0.61564933  0.90162467  0.13602667  1
  O  O39  1  0.71768400  0.95264200  0.03064000  1
  O  O40  1  0.00000000  0.00000000  0.09390800  1
  O  O41  1  0.61930867  0.56829133  0.30269333  1
  O  O42  1  0.23495800  0.28231600  0.03064000  1
  O  O43  1  0.56829133  0.61930867  0.19730667  1
  O  O44  1  0.33333333  0.66666667  0.26057467  1
  O  O45  1  0.91435867  0.33333333  0.08333333  1
  O  O46  1  0.28597533  0.38435067  0.13602667  1
  O  O47  1  0.38069133  0.94898267  0.19730667  1
  O  O48  1  0.75230800  0.00000000  0.25000000  1
  O  O49  1  0.33333333  0.66666667  0.07275867  1
  O  O50  1  0.09837533  0.71402467  0.13602667  1
  O  O51  1  0.43170867  0.05101733  0.30269333  1
  O  O52  1  0.04735800  0.76504200  0.03064000  1
  O  O53  1  0.66666667  0.33333333  0.23942533  1
  O  O54  1  0.94898267  0.38069133  0.30269333  1
  O  O55  1  0.05101733  0.43170867  0.19730667  1
  O  O56  1  0.41897467  0.08564133  0.08333333  1
  O  O57  1  0.00000000  0.75230800  0.25000000  1
  O  O58  1  0.33333333  0.91435867  0.41666667  1
  O  O59  1  0.91435867  0.58102533  0.58333333  1
  O  O60  1  0.28231600  0.23495800  0.46936000  1
  O  O61  1  0.38435067  0.28597533  0.36397333  1
  O  O62  1  0.66666667  0.33333333  0.42724133  1
  O  O63  1  0.28597533  0.90162467  0.63602667  1
  O  O64  1  0.90162467  0.61564933  0.36397333  1
  O  O65  1  0.23495800  0.95264200  0.53064000  1
  O  O66  1  0.00000000  0.00000000  0.59390800  1
  O  O67  1  0.58102533  0.66666667  0.41666667  1
  O  O68  1  0.95264200  0.71768400  0.46936000  1
  O  O69  1  0.04735800  0.28231600  0.53064000  1
  O  O70  1  0.41897467  0.33333333  0.58333333  1
  O  O71  1  0.00000000  0.00000000  0.40609200  1
  O  O72  1  0.76504200  0.04735800  0.46936000  1
  O  O73  1  0.09837533  0.38435067  0.63602667  1
  O  O74  1  0.71402467  0.09837533  0.36397333  1
  O  O75  1  0.33333333  0.66666667  0.57275867  1
  O  O76  1  0.61564933  0.71402467  0.63602667  1
  O  O77  1  0.71768400  0.76504200  0.53064000  1
  O  O78  1  0.08564133  0.41897467  0.41666667  1
  O  O79  1  0.66666667  0.08564133  0.58333333  1
  O  O80  1  0.00000000  0.24769200  0.75000000  1
  O  O81  1  0.58102533  0.91435867  0.91666667  1
  O  O82  1  0.94898267  0.56829133  0.80269333  1
  O  O83  1  0.05101733  0.61930867  0.69730667  1
  O  O84  1  0.33333333  0.66666667  0.76057467  1
  O  O85  1  0.95264200  0.23495800  0.96936000  1
  O  O86  1  0.56829133  0.94898267  0.69730667  1
  O  O87  1  0.90162467  0.28597533  0.86397333  1
  O  O88  1  0.66666667  0.33333333  0.92724133  1
  O  O89  1  0.24769200  0.00000000  0.75000000  1
  O  O90  1  0.61930867  0.05101733  0.80269333  1
  O  O91  1  0.71402467  0.61564933  0.86397333  1
  O  O92  1  0.08564133  0.66666667  0.91666667  1
  O  O93  1  0.66666667  0.33333333  0.73942533  1
  O  O94  1  0.43170867  0.38069133  0.80269333  1
  O  O95  1  0.76504200  0.71768400  0.96936000  1
  O  O96  1  0.38069133  0.43170867  0.69730667  1
  O  O97  1  0.00000000  0.00000000  0.90609200  1
  O  O98  1  0.28231600  0.04735800  0.96936000  1
  O  O99  1  0.38435067  0.09837533  0.86397333  1
  O  O100  1  0.75230800  0.75230800  0.75000000  1
  O  O101  1  0.33333333  0.41897467  0.91666667  1
