# generated using pymatgen
data_LiBi3(IO2)2
_symmetry_space_group_name_H-M   'P 1'
_cell_length_a   5.64033600
_cell_length_b   13.60751000
_cell_length_c   11.26355800
_cell_angle_alpha   90.00000000
_cell_angle_beta   90.00000000
_cell_angle_gamma   90.00000000
_symmetry_Int_Tables_number   1
_chemical_formula_structural   LiBi3(IO2)2
_chemical_formula_sum   'Li4 Bi12 I8 O16'
_cell_volume   864.48853498
_cell_formula_units_Z   4
loop_
 _symmetry_equiv_pos_site_id
 _symmetry_equiv_pos_as_xyz
  1  'x, y, z'
loop_
 _atom_site_type_symbol
 _atom_site_label
 _atom_site_symmetry_multiplicity
 _atom_site_fract_x
 _atom_site_fract_y
 _atom_site_fract_z
 _atom_site_occupancy
  Li  Li0  1  0.50000000  0.29051700  0.25000000  1
  Li  Li1  1  0.00000000  0.20948300  0.75000000  1
  Li  Li2  1  0.00000000  0.79051700  0.25000000  1
  Li  Li3  1  0.50000000  0.70948300  0.75000000  1
  Bi  Bi4  1  0.00000000  0.16182000  0.25000000  1
  Bi  Bi5  1  0.50000000  0.16713200  0.50262600  1
  Bi  Bi6  1  0.00000000  0.33286800  0.49737400  1
  Bi  Bi7  1  0.50000000  0.33818000  0.75000000  1
  Bi  Bi8  1  0.50000000  0.16713200  0.99737400  1
  Bi  Bi9  1  0.00000000  0.33286800  0.00262600  1
  Bi  Bi10  1  0.50000000  0.66182000  0.25000000  1
  Bi  Bi11  1  0.00000000  0.66713200  0.50262600  1
  Bi  Bi12  1  0.50000000  0.83286800  0.49737400  1
  Bi  Bi13  1  0.00000000  0.83818000  0.75000000  1
  Bi  Bi14  1  0.00000000  0.66713200  0.99737400  1
  Bi  Bi15  1  0.50000000  0.83286800  0.00262600  1
  I  I16  1  0.50000000  0.00771600  0.25000000  1
  I  I17  1  0.00000000  0.00000000  0.50000000  1
  I  I18  1  0.00000000  0.49228400  0.75000000  1
  I  I19  1  0.00000000  0.00000000  0.00000000  1
  I  I20  1  0.00000000  0.50771600  0.25000000  1
  I  I21  1  0.50000000  0.50000000  0.50000000  1
  I  I22  1  0.50000000  0.99228400  0.75000000  1
  I  I23  1  0.50000000  0.50000000  0.00000000  1
  O  O24  1  0.24663300  0.24607500  0.37651800  1
  O  O25  1  0.75336700  0.24607500  0.37651800  1
  O  O26  1  0.25336700  0.25392500  0.62348200  1
  O  O27  1  0.74663300  0.25392500  0.62348200  1
  O  O28  1  0.25336700  0.25392500  0.87651800  1
  O  O29  1  0.24663300  0.24607500  0.12348200  1
  O  O30  1  0.74663300  0.25392500  0.87651800  1
  O  O31  1  0.75336700  0.24607500  0.12348200  1
  O  O32  1  0.74663300  0.74607500  0.37651800  1
  O  O33  1  0.25336700  0.74607500  0.37651800  1
  O  O34  1  0.75336700  0.75392500  0.62348200  1
  O  O35  1  0.24663300  0.75392500  0.62348200  1
  O  O36  1  0.75336700  0.75392500  0.87651800  1
  O  O37  1  0.74663300  0.74607500  0.12348200  1
  O  O38  1  0.24663300  0.75392500  0.87651800  1
  O  O39  1  0.25336700  0.74607500  0.12348200  1
