# generated using pymatgen
data_Mn3SnO8
_symmetry_space_group_name_H-M   'P 1'
_cell_length_a   8.44703300
_cell_length_b   8.44703300
_cell_length_c   8.44703300
_cell_angle_alpha   90.00000000
_cell_angle_beta   90.00000000
_cell_angle_gamma   90.00000000
_symmetry_Int_Tables_number   1
_chemical_formula_structural   Mn3SnO8
_chemical_formula_sum   'Mn12 Sn4 O32'
_cell_volume   602.71579448
_cell_formula_units_Z   4
loop_
 _symmetry_equiv_pos_site_id
 _symmetry_equiv_pos_as_xyz
  1  'x, y, z'
loop_
 _atom_site_type_symbol
 _atom_site_label
 _atom_site_symmetry_multiplicity
 _atom_site_fract_x
 _atom_site_fract_y
 _atom_site_fract_z
 _atom_site_occupancy
  Mn  Mn0  1  0.11149700  0.13850300  0.62500000  1
  Mn  Mn1  1  0.12500000  0.38850300  0.86149700  1
  Mn  Mn2  1  0.13850300  0.62500000  0.11149700  1
  Mn  Mn3  1  0.36149700  0.37500000  0.61149700  1
  Mn  Mn4  1  0.37500000  0.61149700  0.36149700  1
  Mn  Mn5  1  0.38850300  0.86149700  0.12500000  1
  Mn  Mn6  1  0.61149700  0.36149700  0.37500000  1
  Mn  Mn7  1  0.62500000  0.11149700  0.13850300  1
  Mn  Mn8  1  0.63850300  0.87500000  0.88850300  1
  Mn  Mn9  1  0.86149700  0.12500000  0.38850300  1
  Mn  Mn10  1  0.87500000  0.88850300  0.63850300  1
  Mn  Mn11  1  0.88850300  0.63850300  0.87500000  1
  Sn  Sn12  1  0.12500000  0.87500000  0.37500000  1
  Sn  Sn13  1  0.37500000  0.12500000  0.87500000  1
  Sn  Sn14  1  0.62500000  0.62500000  0.62500000  1
  Sn  Sn15  1  0.87500000  0.37500000  0.12500000  1
  O  O16  1  0.09172600  0.12330800  0.39576900  1
  O  O17  1  0.10423100  0.90827400  0.62330800  1
  O  O18  1  0.11794900  0.61794900  0.88205100  1
  O  O19  1  0.12669200  0.15827400  0.85423100  1
  O  O20  1  0.12330800  0.39576900  0.09172600  1
  O  O21  1  0.13205100  0.36794900  0.63205100  1
  O  O22  1  0.14576900  0.62669200  0.34172600  1
  O  O23  1  0.15827400  0.85423100  0.12669200  1
  O  O24  1  0.34172600  0.14576900  0.62669200  1
  O  O25  1  0.35423100  0.37330800  0.84172600  1
  O  O26  1  0.36794900  0.63205100  0.13205100  1
  O  O27  1  0.37669200  0.60423100  0.59172600  1
  O  O28  1  0.37330800  0.84172600  0.35423100  1
  O  O29  1  0.38205100  0.38205100  0.38205100  1
  O  O30  1  0.39576900  0.09172600  0.12330800  1
  O  O31  1  0.40827400  0.87669200  0.89576900  1
  O  O32  1  0.59172600  0.37669200  0.60423100  1
  O  O33  1  0.60423100  0.59172600  0.37669200  1
  O  O34  1  0.61794900  0.88205100  0.11794900  1
  O  O35  1  0.62669200  0.34172600  0.14576900  1
  O  O36  1  0.62330800  0.10423100  0.90827400  1
  O  O37  1  0.63205100  0.13205100  0.36794900  1
  O  O38  1  0.64576900  0.87330800  0.65827400  1
  O  O39  1  0.65827400  0.64576900  0.87330800  1
  O  O40  1  0.84172600  0.35423100  0.37330800  1
  O  O41  1  0.85423100  0.12669200  0.15827400  1
  O  O42  1  0.86794900  0.86794900  0.86794900  1
  O  O43  1  0.87669200  0.89576900  0.40827400  1
  O  O44  1  0.87330800  0.65827400  0.64576900  1
  O  O45  1  0.88205100  0.11794900  0.61794900  1
  O  O46  1  0.89576900  0.40827400  0.87669200  1
  O  O47  1  0.90827400  0.62330800  0.10423100  1
