# generated using pymatgen
data_Li3Y3ZrO8
_symmetry_space_group_name_H-M   'P 1'
_cell_length_a   6.23011200
_cell_length_b   10.69343000
_cell_length_c   6.12722300
_cell_angle_alpha   90.00000000
_cell_angle_beta   90.00000000
_cell_angle_gamma   90.00000000
_symmetry_Int_Tables_number   1
_chemical_formula_structural   Li3Y3ZrO8
_chemical_formula_sum   'Li6 Y6 Zr2 O16'
_cell_volume   408.20335678
_cell_formula_units_Z   2
loop_
 _symmetry_equiv_pos_site_id
 _symmetry_equiv_pos_as_xyz
  1  'x, y, z'
loop_
 _atom_site_type_symbol
 _atom_site_label
 _atom_site_symmetry_multiplicity
 _atom_site_fract_x
 _atom_site_fract_y
 _atom_site_fract_z
 _atom_site_occupancy
  Li  Li0  1  0.25000000  0.75000000  0.25674700  1
  Li  Li1  1  0.00000000  0.00000000  0.50000000  1
  Li  Li2  1  0.25000000  0.25000000  0.74325300  1
  Li  Li3  1  0.75000000  0.25000000  0.25674700  1
  Li  Li4  1  0.50000000  0.50000000  0.50000000  1
  Li  Li5  1  0.75000000  0.75000000  0.74325300  1
  Y  Y6  1  0.25000000  0.25000000  0.24702900  1
  Y  Y7  1  0.50000000  0.00000000  0.50000000  1
  Y  Y8  1  0.25000000  0.75000000  0.75297100  1
  Y  Y9  1  0.75000000  0.75000000  0.24702900  1
  Y  Y10  1  0.00000000  0.50000000  0.50000000  1
  Y  Y11  1  0.75000000  0.25000000  0.75297100  1
  Zr  Zr12  1  0.00000000  0.00000000  0.00000000  1
  Zr  Zr13  1  0.50000000  0.50000000  0.00000000  1
  O  O14  1  0.22503750  0.03119050  0.25727500  1
  O  O15  1  0.77496250  0.96880950  0.25727500  1
  O  O16  1  0.50000000  0.29549700  0.00000000  1
  O  O17  1  0.50000000  0.70450300  0.00000000  1
  O  O18  1  0.50000000  0.78588500  0.50000000  1
  O  O19  1  0.50000000  0.21411500  0.50000000  1
  O  O20  1  0.22503750  0.96880950  0.74272500  1
  O  O21  1  0.77496250  0.03119050  0.74272500  1
  O  O22  1  0.72503750  0.53119050  0.25727500  1
  O  O23  1  0.27496250  0.46880950  0.25727500  1
  O  O24  1  0.00000000  0.79549700  0.00000000  1
  O  O25  1  0.00000000  0.20450300  0.00000000  1
  O  O26  1  0.00000000  0.28588500  0.50000000  1
  O  O27  1  0.00000000  0.71411500  0.50000000  1
  O  O28  1  0.72503750  0.46880950  0.74272500  1
  O  O29  1  0.27496250  0.53119050  0.74272500  1
