# generated using pymatgen
data_Ce5Dy2O13
_symmetry_space_group_name_H-M   'P 1'
_cell_length_a   3.82512990
_cell_length_b   3.82512990
_cell_length_c   66.84349823
_cell_angle_alpha   90.00000000
_cell_angle_beta   90.00000000
_cell_angle_gamma   120.00000000
_symmetry_Int_Tables_number   1
_chemical_formula_structural   Ce5Dy2O13
_chemical_formula_sum   'Ce15 Dy6 O39'
_cell_volume   846.99759968
_cell_formula_units_Z   3
loop_
 _symmetry_equiv_pos_site_id
 _symmetry_equiv_pos_as_xyz
  1  'x, y, z'
loop_
 _atom_site_type_symbol
 _atom_site_label
 _atom_site_symmetry_multiplicity
 _atom_site_fract_x
 _atom_site_fract_y
 _atom_site_fract_z
 _atom_site_occupancy
  Ce  Ce0  1  0.33333333  0.66666667  0.09455467  1
  Ce  Ce1  1  0.00000000  0.00000000  0.14222500  1
  Ce  Ce2  1  0.66666667  0.33333333  0.18986833  1
  Ce  Ce3  1  0.33333333  0.66666667  0.23751167  1
  Ce  Ce4  1  0.00000000  0.00000000  0.28497400  1
  Ce  Ce5  1  0.00000000  0.00000000  0.42788800  1
  Ce  Ce6  1  0.66666667  0.33333333  0.47555833  1
  Ce  Ce7  1  0.33333333  0.66666667  0.52320167  1
  Ce  Ce8  1  0.00000000  0.00000000  0.57084500  1
  Ce  Ce9  1  0.66666667  0.33333333  0.61830733  1
  Ce  Ce10  1  0.66666667  0.33333333  0.76122133  1
  Ce  Ce11  1  0.33333333  0.66666667  0.80889167  1
  Ce  Ce12  1  0.00000000  0.00000000  0.85653500  1
  Ce  Ce13  1  0.66666667  0.33333333  0.90417833  1
  Ce  Ce14  1  0.33333333  0.66666667  0.95164067  1
  Dy  Dy15  1  0.66666667  0.33333333  0.33236033  1
  Dy  Dy16  1  0.66666667  0.33333333  0.04966433  1
  Dy  Dy17  1  0.33333333  0.66666667  0.66569367  1
  Dy  Dy18  1  0.33333333  0.66666667  0.38299767  1
  Dy  Dy19  1  0.00000000  0.00000000  0.99902700  1
  Dy  Dy20  1  0.00000000  0.00000000  0.71633100  1
  O  O21  1  0.33333333  0.66666667  0.05965667  1
  O  O22  1  0.00000000  0.00000000  0.03084600  1
  O  O23  1  0.00000000  0.00000000  0.10740300  1
  O  O24  1  0.66666667  0.33333333  0.08354833  1
  O  O25  1  0.33333333  0.66666667  0.13115367  1
  O  O26  1  0.00000000  0.00000000  0.17879500  1
  O  O27  1  0.66666667  0.33333333  0.15505233  1
  O  O28  1  0.33333333  0.66666667  0.20269967  1
  O  O29  1  0.66666667  0.33333333  0.22644033  1
  O  O30  1  0.00000000  0.00000000  0.25039400  1
  O  O31  1  0.00000000  0.00000000  0.32633400  1
  O  O32  1  0.33333333  0.66666667  0.27390367  1
  O  O33  1  0.66666667  0.33333333  0.29737033  1
  O  O34  1  0.00000000  0.00000000  0.39299000  1
  O  O35  1  0.66666667  0.33333333  0.36417933  1
  O  O36  1  0.66666667  0.33333333  0.44073633  1
  O  O37  1  0.33333333  0.66666667  0.41688167  1
  O  O38  1  0.00000000  0.00000000  0.46448700  1
  O  O39  1  0.66666667  0.33333333  0.51212833  1
  O  O40  1  0.33333333  0.66666667  0.48838567  1
  O  O41  1  0.00000000  0.00000000  0.53603300  1
  O  O42  1  0.33333333  0.66666667  0.55977367  1
  O  O43  1  0.66666667  0.33333333  0.58372733  1
  O  O44  1  0.66666667  0.33333333  0.65966733  1
  O  O45  1  0.00000000  0.00000000  0.60723700  1
  O  O46  1  0.33333333  0.66666667  0.63070367  1
  O  O47  1  0.66666667  0.33333333  0.72632333  1
  O  O48  1  0.33333333  0.66666667  0.69751267  1
  O  O49  1  0.33333333  0.66666667  0.77406967  1
  O  O50  1  0.00000000  0.00000000  0.75021500  1
  O  O51  1  0.66666667  0.33333333  0.79782033  1
  O  O52  1  0.33333333  0.66666667  0.84546167  1
  O  O53  1  0.00000000  0.00000000  0.82171900  1
  O  O54  1  0.66666667  0.33333333  0.86936633  1
  O  O55  1  0.00000000  0.00000000  0.89310700  1
  O  O56  1  0.33333333  0.66666667  0.91706067  1
  O  O57  1  0.33333333  0.66666667  0.99300067  1
  O  O58  1  0.66666667  0.33333333  0.94057033  1
  O  O59  1  0.00000000  0.00000000  0.96403700  1
