# generated using pymatgen
data_Li7VO5F
_symmetry_space_group_name_H-M   'P 1'
_cell_length_a   5.26229499
_cell_length_b   5.36028947
_cell_length_c   5.82382512
_cell_angle_alpha   90.91688684
_cell_angle_beta   116.17210569
_cell_angle_gamma   116.71940498
_symmetry_Int_Tables_number   1
_chemical_formula_structural   Li7VO5F
_chemical_formula_sum   'Li7 V1 O5 F1'
_cell_volume   126.89608385
_cell_formula_units_Z   1
loop_
 _symmetry_equiv_pos_site_id
 _symmetry_equiv_pos_as_xyz
  1  'x, y, z'
loop_
 _atom_site_type_symbol
 _atom_site_label
 _atom_site_symmetry_multiplicity
 _atom_site_fract_x
 _atom_site_fract_y
 _atom_site_fract_z
 _atom_site_occupancy
  Li  Li0  1  0.63492775  0.10153575  0.38179750  1
  Li  Li1  1  0.73852650  0.50866075  0.62967550  1
  Li  Li2  1  0.68511950  0.35029975  0.01146650  1
  Li  Li3  1  0.27698925  0.62479450  0.98075700  1
  Li  Li4  1  0.88627450  0.79417650  0.36206100  1
  Li  Li5  1  0.21955200  0.46489475  0.37283750  1
  Li  Li6  1  0.42044750  0.91563425  0.65890550  1
  V  V7  1  0.05129625  0.04319150  0.00948300  1
  O  O8  1  0.84457300  0.24155100  0.77011500  1
  O  O9  1  0.47493325  0.38846225  0.23296650  1
  O  O10  1  0.84012825  0.07532700  0.19068300  1
  O  O11  1  0.11314425  0.88864375  0.76453950  1
  O  O12  1  0.17668050  0.78392150  0.25153600  1
  F  F13  1  0.50566200  0.60176200  0.74900300  1
