# generated using pymatgen
data_NbVO4
_symmetry_space_group_name_H-M   'P 1'
_cell_length_a   4.58319603
_cell_length_b   4.99220300
_cell_length_c   11.90371970
_cell_angle_alpha   90.00000000
_cell_angle_beta   90.00000000
_cell_angle_gamma   90.00000000
_symmetry_Int_Tables_number   1
_chemical_formula_structural   NbVO4
_chemical_formula_sum   'Nb4 V4 O16'
_cell_volume   272.36002248
_cell_formula_units_Z   4
loop_
 _symmetry_equiv_pos_site_id
 _symmetry_equiv_pos_as_xyz
  1  'x, y, z'
loop_
 _atom_site_type_symbol
 _atom_site_label
 _atom_site_symmetry_multiplicity
 _atom_site_fract_x
 _atom_site_fract_y
 _atom_site_fract_z
 _atom_site_occupancy
  Nb  Nb0  1  0.00000000  0.25000000  0.32736200  1
  Nb  Nb1  1  0.50000000  0.25000000  0.82736200  1
  Nb  Nb2  1  0.50000000  0.75000000  0.17263800  1
  Nb  Nb3  1  0.00000000  0.75000000  0.67263800  1
  V  V4  1  0.50000000  0.25000000  0.56593000  1
  V  V5  1  0.00000000  0.75000000  0.93407000  1
  V  V6  1  0.00000000  0.25000000  0.06593000  1
  V  V7  1  0.50000000  0.75000000  0.43407000  1
  O  O8  1  0.76995950  0.06970550  0.19179200  1
  O  O9  1  0.26995950  0.43029450  0.69179200  1
  O  O10  1  0.23004050  0.43029450  0.19179200  1
  O  O11  1  0.26995950  0.93029450  0.30820800  1
  O  O12  1  0.73004050  0.06970550  0.69179200  1
  O  O13  1  0.76995950  0.56970550  0.80820800  1
  O  O14  1  0.73004050  0.56970550  0.30820800  1
  O  O15  1  0.23004050  0.93029450  0.80820800  1
  O  O16  1  0.75611750  0.58248650  0.06276900  1
  O  O17  1  0.25611750  0.91751350  0.56276900  1
  O  O18  1  0.24388250  0.91751350  0.06276900  1
  O  O19  1  0.25611750  0.41751350  0.43723100  1
  O  O20  1  0.74388250  0.58248650  0.56276900  1
  O  O21  1  0.75611750  0.08248650  0.93723100  1
  O  O22  1  0.74388250  0.08248650  0.43723100  1
  O  O23  1  0.24388250  0.41751350  0.93723100  1
