# generated using pymatgen
data_KRbO
_symmetry_space_group_name_H-M   'P 1'
_cell_length_a   11.96341800
_cell_length_b   11.96341800
_cell_length_c   5.75032200
_cell_angle_alpha   90.00000000
_cell_angle_beta   90.00000000
_cell_angle_gamma   90.00000000
_symmetry_Int_Tables_number   1
_chemical_formula_structural   KRbO
_chemical_formula_sum   'K8 Rb8 O8'
_cell_volume   823.00546462
_cell_formula_units_Z   8
loop_
 _symmetry_equiv_pos_site_id
 _symmetry_equiv_pos_as_xyz
  1  'x, y, z'
loop_
 _atom_site_type_symbol
 _atom_site_label
 _atom_site_symmetry_multiplicity
 _atom_site_fract_x
 _atom_site_fract_y
 _atom_site_fract_z
 _atom_site_occupancy
  K  K0  1  0.66475850  0.33524150  0.50000000  1
  K  K1  1  0.66475850  0.66475850  0.50000000  1
  K  K2  1  0.83524150  0.16475850  0.00000000  1
  K  K3  1  0.83524150  0.83524150  0.00000000  1
  K  K4  1  0.16475850  0.83524150  0.00000000  1
  K  K5  1  0.16475850  0.16475850  0.00000000  1
  K  K6  1  0.33524150  0.66475850  0.50000000  1
  K  K7  1  0.33524150  0.33524150  0.50000000  1
  Rb  Rb8  1  0.50000000  0.85429750  0.00000000  1
  Rb  Rb9  1  0.64570250  0.00000000  0.50000000  1
  Rb  Rb10  1  0.35429750  0.00000000  0.50000000  1
  Rb  Rb11  1  0.50000000  0.14570250  0.00000000  1
  Rb  Rb12  1  0.00000000  0.35429750  0.50000000  1
  Rb  Rb13  1  0.14570250  0.50000000  0.00000000  1
  Rb  Rb14  1  0.85429750  0.50000000  0.00000000  1
  Rb  Rb15  1  0.00000000  0.64570250  0.50000000  1
  O  O16  1  0.50000000  0.80002150  0.50000000  1
  O  O17  1  0.50000000  0.19997850  0.50000000  1
  O  O18  1  0.30002150  0.00000000  0.00000000  1
  O  O19  1  0.69997850  0.00000000  0.00000000  1
  O  O20  1  0.00000000  0.30002150  0.00000000  1
  O  O21  1  0.00000000  0.69997850  0.00000000  1
  O  O22  1  0.80002150  0.50000000  0.50000000  1
  O  O23  1  0.19997850  0.50000000  0.50000000  1
