# generated using pymatgen
data_BaLaI5
_symmetry_space_group_name_H-M   'P 1'
_cell_length_a   8.20681800
_cell_length_b   14.55763600
_cell_length_c   11.22876721
_cell_angle_alpha   90.00000000
_cell_angle_beta   95.38879436
_cell_angle_gamma   90.00000000
_symmetry_Int_Tables_number   1
_chemical_formula_structural   BaLaI5
_chemical_formula_sum   'Ba4 La4 I20'
_cell_volume   1335.59275143
_cell_formula_units_Z   4
loop_
 _symmetry_equiv_pos_site_id
 _symmetry_equiv_pos_as_xyz
  1  'x, y, z'
loop_
 _atom_site_type_symbol
 _atom_site_label
 _atom_site_symmetry_multiplicity
 _atom_site_fract_x
 _atom_site_fract_y
 _atom_site_fract_z
 _atom_site_occupancy
  Ba  Ba0  1  0.94997300  0.95761000  0.81543000  1
  Ba  Ba1  1  0.58560900  0.62239500  0.62217500  1
  Ba  Ba2  1  0.41439100  0.12239500  0.37782500  1
  Ba  Ba3  1  0.05002700  0.45761000  0.18457000  1
  La  La4  1  0.03076700  0.38518000  0.61762900  1
  La  La5  1  0.48540100  0.76918300  0.11713500  1
  La  La6  1  0.51459900  0.26918300  0.88286500  1
  La  La7  1  0.96923300  0.88518000  0.38237100  1
  I  I8  1  0.05046600  0.24275300  0.40634300  1
  I  I9  1  0.86415100  0.49638800  0.82063200  1
  I  I10  1  0.86049900  0.70943900  0.21640400  1
  I  I11  1  0.77976500  0.48351400  0.42215800  1
  I  I12  1  0.66937500  0.77521800  0.87289600  1
  I  I13  1  0.72531700  0.99115600  0.54479200  1
  I  I14  1  0.81062900  0.27787800  0.07399900  1
  I  I15  1  0.65389900  0.26840300  0.62301000  1
  I  I16  1  0.65016600  0.96253200  0.20642100  1
  I  I17  1  0.57451800  0.05985300  0.87620400  1
  I  I18  1  0.42548200  0.55985300  0.12379600  1
  I  I19  1  0.34983400  0.46253200  0.79357900  1
  I  I20  1  0.34610100  0.76840300  0.37699000  1
  I  I21  1  0.18937100  0.77787800  0.92600100  1
  I  I22  1  0.27468300  0.49115600  0.45520800  1
  I  I23  1  0.33062500  0.27521800  0.12710400  1
  I  I24  1  0.22023500  0.98351400  0.57784200  1
  I  I25  1  0.13950100  0.20943900  0.78359600  1
  I  I26  1  0.13584900  0.99638800  0.17936800  1
  I  I27  1  0.94953400  0.74275300  0.59365700  1
