# generated using pymatgen
data_Gd2W2O9
_symmetry_space_group_name_H-M   'P 1'
_cell_length_a   5.40389000
_cell_length_b   5.50792900
_cell_length_c   23.83693400
_cell_angle_alpha   90.00000000
_cell_angle_beta   90.00000000
_cell_angle_gamma   90.00000000
_symmetry_Int_Tables_number   1
_chemical_formula_structural   Gd2W2O9
_chemical_formula_sum   'Gd8 W8 O36'
_cell_volume   709.48828269
_cell_formula_units_Z   4
loop_
 _symmetry_equiv_pos_site_id
 _symmetry_equiv_pos_as_xyz
  1  'x, y, z'
loop_
 _atom_site_type_symbol
 _atom_site_label
 _atom_site_symmetry_multiplicity
 _atom_site_fract_x
 _atom_site_fract_y
 _atom_site_fract_z
 _atom_site_occupancy
  Gd  Gd0  1  0.27257800  0.87832300  0.29893100  1
  Gd  Gd1  1  0.77257800  0.87832300  0.20106900  1
  Gd  Gd2  1  0.27257800  0.62167700  0.70106900  1
  Gd  Gd3  1  0.77257800  0.62167700  0.79893100  1
  Gd  Gd4  1  0.72742200  0.37832300  0.29893100  1
  Gd  Gd5  1  0.22742200  0.37832300  0.20106900  1
  Gd  Gd6  1  0.72742200  0.12167700  0.70106900  1
  Gd  Gd7  1  0.22742200  0.12167700  0.79893100  1
  W  W8  1  0.75106300  0.82457500  0.42207300  1
  W  W9  1  0.25106300  0.82457500  0.07792700  1
  W  W10  1  0.75106300  0.67542500  0.57792700  1
  W  W11  1  0.25106300  0.67542500  0.92207300  1
  W  W12  1  0.24893700  0.32457500  0.42207300  1
  W  W13  1  0.74893700  0.32457500  0.07792700  1
  W  W14  1  0.24893700  0.17542500  0.57792700  1
  W  W15  1  0.74893700  0.17542500  0.92207300  1
  O  O16  1  0.53791700  0.98911000  0.09646500  1
  O  O17  1  0.46208300  0.01089000  0.90353500  1
  O  O18  1  0.00480500  0.88314900  0.74204700  1
  O  O19  1  0.45249600  0.92940500  0.56083400  1
  O  O20  1  0.50480500  0.88314900  0.75795300  1
  O  O21  1  0.95249600  0.92940500  0.93916600  1
  O  O22  1  0.64309900  0.77571400  0.34870800  1
  O  O23  1  0.14309900  0.77571400  0.15129200  1
  O  O24  1  0.33509800  0.75000000  0.00000000  1
  O  O25  1  0.83509800  0.75000000  0.50000000  1
  O  O26  1  0.64309900  0.72428600  0.65129200  1
  O  O27  1  0.14309900  0.72428600  0.84870800  1
  O  O28  1  0.45249600  0.57059500  0.43916600  1
  O  O29  1  0.00480500  0.61685100  0.25795300  1
  O  O30  1  0.95249600  0.57059500  0.06083400  1
  O  O31  1  0.50480500  0.61685100  0.24204700  1
  O  O32  1  0.96208300  0.48911000  0.40353500  1
  O  O33  1  0.03791700  0.51089000  0.59646500  1
  O  O34  1  0.46208300  0.48911000  0.09646500  1
  O  O35  1  0.53791700  0.51089000  0.90353500  1
  O  O36  1  0.99519500  0.38314900  0.74204700  1
  O  O37  1  0.54750400  0.42940500  0.56083400  1
  O  O38  1  0.49519500  0.38314900  0.75795300  1
  O  O39  1  0.04750400  0.42940500  0.93916600  1
  O  O40  1  0.35690100  0.27571400  0.34870800  1
  O  O41  1  0.85690100  0.27571400  0.15129200  1
  O  O42  1  0.66490200  0.25000000  0.00000000  1
  O  O43  1  0.16490200  0.25000000  0.50000000  1
  O  O44  1  0.35690100  0.22428600  0.65129200  1
  O  O45  1  0.85690100  0.22428600  0.84870800  1
  O  O46  1  0.54750400  0.07059500  0.43916600  1
  O  O47  1  0.99519500  0.11685100  0.25795300  1
  O  O48  1  0.04750400  0.07059500  0.06083400  1
  O  O49  1  0.49519500  0.11685100  0.24204700  1
  O  O50  1  0.03791700  0.98911000  0.40353500  1
  O  O51  1  0.96208300  0.01089000  0.59646500  1
