# generated using pymatgen
data_Zr5Ti7O24
_symmetry_space_group_name_H-M   'P 1'
_cell_length_a   5.41221000
_cell_length_b   14.54742300
_cell_length_c   11.49749962
_cell_angle_alpha   90.00000000
_cell_angle_beta   118.16106323
_cell_angle_gamma   90.00000000
_symmetry_Int_Tables_number   1
_chemical_formula_structural   Zr5Ti7O24
_chemical_formula_sum   'Zr10 Ti14 O48'
_cell_volume   798.08234391
_cell_formula_units_Z   2
loop_
 _symmetry_equiv_pos_site_id
 _symmetry_equiv_pos_as_xyz
  1  'x, y, z'
loop_
 _atom_site_type_symbol
 _atom_site_label
 _atom_site_symmetry_multiplicity
 _atom_site_fract_x
 _atom_site_fract_y
 _atom_site_fract_z
 _atom_site_occupancy
  Zr  Zr0  1  0.86247400  0.74837800  0.12536800  1
  Zr  Zr1  1  0.35579300  0.74573000  0.62196700  1
  Zr  Zr2  1  0.63970700  0.74449100  0.37172300  1
  Zr  Zr3  1  0.14055100  0.74731800  0.87576200  1
  Zr  Zr4  1  0.79051300  0.91961200  0.59238800  1
  Zr  Zr5  1  0.79051300  0.08038800  0.09238800  1
  Zr  Zr6  1  0.14055100  0.25268200  0.37576200  1
  Zr  Zr7  1  0.35579300  0.25427000  0.12196700  1
  Zr  Zr8  1  0.86247400  0.25162200  0.62536800  1
  Zr  Zr9  1  0.63970700  0.25550900  0.87172300  1
  Ti  Ti10  1  0.15186200  0.91565100  0.34444600  1
  Ti  Ti11  1  0.65039800  0.91597100  0.84209100  1
  Ti  Ti12  1  0.28066800  0.91574700  0.09448500  1
  Ti  Ti13  1  0.28066800  0.08425300  0.59448500  1
  Ti  Ti14  1  0.65039800  0.08402900  0.34209100  1
  Ti  Ti15  1  0.15186200  0.08434900  0.84444600  1
  Ti  Ti16  1  0.84413100  0.41959000  0.15925600  1
  Ti  Ti17  1  0.34230700  0.42029400  0.65856100  1
  Ti  Ti18  1  0.22716700  0.42145500  0.90863900  1
  Ti  Ti19  1  0.72507000  0.41922800  0.40922800  1
  Ti  Ti20  1  0.22716700  0.57854500  0.40863900  1
  Ti  Ti21  1  0.72507000  0.58077200  0.90922800  1
  Ti  Ti22  1  0.34230700  0.57970600  0.15856100  1
  Ti  Ti23  1  0.84413100  0.58041000  0.65925600  1
  O  O24  1  0.44339900  0.82898800  0.03193000  1
  O  O25  1  0.95476800  0.82035000  0.52726700  1
  O  O26  1  0.86678500  0.82801800  0.28060200  1
  O  O27  1  0.35701100  0.83159600  0.77845600  1
  O  O28  1  0.41298600  0.83351200  0.48306000  1
  O  O29  1  0.31027700  0.83145100  0.23557200  1
  O  O30  1  0.80118900  0.83247200  0.73993800  1
  O  O31  1  0.91296600  0.83722900  0.98687400  1
  O  O32  1  0.06380300  0.97751500  0.18200900  1
  O  O33  1  0.54969400  0.99067000  0.67966100  1
  O  O34  1  0.53462400  0.99260800  0.41940400  1
  O  O35  1  0.04988700  0.99260800  0.93154700  1
  O  O36  1  0.54969400  0.00933000  0.17966100  1
  O  O37  1  0.06380300  0.02248500  0.68200900  1
  O  O38  1  0.53462400  0.00739200  0.91940400  1
  O  O39  1  0.04988700  0.00739200  0.43154700  1
  O  O40  1  0.80118900  0.16752800  0.23993800  1
  O  O41  1  0.91296600  0.16277100  0.48687400  1
  O  O42  1  0.31027700  0.16854900  0.73557200  1
  O  O43  1  0.41298600  0.16648800  0.98306000  1
  O  O44  1  0.95476800  0.17965000  0.02726700  1
  O  O45  1  0.44339900  0.17101200  0.53193000  1
  O  O46  1  0.35701100  0.16840400  0.27845600  1
  O  O47  1  0.86678500  0.17198200  0.78060200  1
  O  O48  1  0.12934400  0.33235900  0.21681300  1
  O  O49  1  0.62968600  0.33374900  0.71379500  1
  O  O50  1  0.55467300  0.33130300  0.46521300  1
  O  O51  1  0.05339900  0.33689600  0.96524600  1
  O  O52  1  0.58531200  0.33875900  0.01540600  1
  O  O53  1  0.08570000  0.33778000  0.51479300  1
  O  O54  1  0.69208700  0.33985700  0.26429100  1
  O  O55  1  0.19539000  0.33954300  0.76460300  1
  O  O56  1  0.95501900  0.48809100  0.32516500  1
  O  O57  1  0.45543000  0.48943800  0.82448100  1
  O  O58  1  0.44846200  0.48995600  0.07469500  1
  O  O59  1  0.94746600  0.48880600  0.57526500  1
  O  O60  1  0.94746600  0.51119400  0.07526500  1
  O  O61  1  0.44846200  0.51004400  0.57469500  1
  O  O62  1  0.45543000  0.51056200  0.32448100  1
  O  O63  1  0.95501900  0.51190900  0.82516500  1
  O  O64  1  0.19539000  0.66045700  0.26460300  1
  O  O65  1  0.69208700  0.66014300  0.76429100  1
  O  O66  1  0.08570000  0.66222000  0.01479300  1
  O  O67  1  0.58531200  0.66124100  0.51540600  1
  O  O68  1  0.55467300  0.66869700  0.96521300  1
  O  O69  1  0.05339900  0.66310400  0.46524600  1
  O  O70  1  0.62968600  0.66625100  0.21379500  1
  O  O71  1  0.12934400  0.66764100  0.71681300  1
