# generated using pymatgen
data_VO2F
_symmetry_space_group_name_H-M   'P 1'
_cell_length_a   21.53967600
_cell_length_b   5.36572600
_cell_length_c   5.48011282
_cell_angle_alpha   90.00000000
_cell_angle_beta   102.67559755
_cell_angle_gamma   90.00000000
_symmetry_Int_Tables_number   1
_chemical_formula_structural   VO2F
_chemical_formula_sum   'V12 O24 F12'
_cell_volume   617.93309152
_cell_formula_units_Z   12
loop_
 _symmetry_equiv_pos_site_id
 _symmetry_equiv_pos_as_xyz
  1  'x, y, z'
loop_
 _atom_site_type_symbol
 _atom_site_label
 _atom_site_symmetry_multiplicity
 _atom_site_fract_x
 _atom_site_fract_y
 _atom_site_fract_z
 _atom_site_occupancy
  V  V0  1  0.25214250  0.12666350  0.27760000  1
  V  V1  1  0.41379150  0.11552450  0.37768800  1
  V  V2  1  0.08620850  0.61552450  0.62231200  1
  V  V3  1  0.24785750  0.62666350  0.72240000  1
  V  V4  1  0.08068450  0.10544150  0.12859100  1
  V  V5  1  0.41931550  0.60544150  0.87140900  1
  V  V6  1  0.75214250  0.62666350  0.27760000  1
  V  V7  1  0.91379150  0.61552450  0.37768800  1
  V  V8  1  0.58620850  0.11552450  0.62231200  1
  V  V9  1  0.74785750  0.12666350  0.72240000  1
  V  V10  1  0.58068450  0.60544150  0.12859100  1
  V  V11  1  0.91931550  0.10544150  0.87140900  1
  O  O12  1  0.00000000  0.00360600  0.00000000  1
  O  O13  1  0.40207200  0.36014000  0.19683100  1
  O  O14  1  0.00000000  0.63366500  0.50000000  1
  O  O15  1  0.33205300  0.99679300  0.33675000  1
  O  O16  1  0.09792800  0.86014000  0.80316900  1
  O  O17  1  0.23474150  0.86767950  0.52262300  1
  O  O18  1  0.06752350  0.27874750  0.35680600  1
  O  O19  1  0.43247650  0.77874750  0.64319400  1
  O  O20  1  0.33140600  0.63190400  0.83147600  1
  O  O21  1  0.16794700  0.49679300  0.66325000  1
  O  O22  1  0.26525850  0.36767950  0.47737700  1
  O  O23  1  0.16859400  0.13190400  0.16852400  1
  O  O24  1  0.50000000  0.50360600  0.00000000  1
  O  O25  1  0.90207200  0.86014000  0.19683100  1
  O  O26  1  0.50000000  0.13366500  0.50000000  1
  O  O27  1  0.83205300  0.49679300  0.33675000  1
  O  O28  1  0.59792800  0.36014000  0.80316900  1
  O  O29  1  0.73474150  0.36767950  0.52262300  1
  O  O30  1  0.56752350  0.77874750  0.35680600  1
  O  O31  1  0.93247650  0.27874750  0.64319400  1
  O  O32  1  0.83140600  0.13190400  0.83147600  1
  O  O33  1  0.66794700  0.99679300  0.66325000  1
  O  O34  1  0.76525850  0.86767950  0.47737700  1
  O  O35  1  0.66859400  0.63190400  0.16852400  1
  F  F36  1  0.40107850  0.28714050  0.68573200  1
  F  F37  1  0.42864050  0.87268550  0.12446300  1
  F  F38  1  0.07135950  0.37268550  0.87553700  1
  F  F39  1  0.09892150  0.78714050  0.31426800  1
  F  F40  1  0.23408150  0.77610750  0.01087200  1
  F  F41  1  0.26591850  0.27610750  0.98912800  1
  F  F42  1  0.90107850  0.78714050  0.68573200  1
  F  F43  1  0.92864050  0.37268550  0.12446300  1
  F  F44  1  0.57135950  0.87268550  0.87553700  1
  F  F45  1  0.59892150  0.28714050  0.31426800  1
  F  F46  1  0.73408150  0.27610750  0.01087200  1
  F  F47  1  0.76591850  0.77610750  0.98912800  1
