# generated using pymatgen
data_LuBiO3
_symmetry_space_group_name_H-M   'P 1'
_cell_length_a   5.89331803
_cell_length_b   5.89331803
_cell_length_c   15.21970191
_cell_angle_alpha   90.00000000
_cell_angle_beta   90.00000000
_cell_angle_gamma   120.00000000
_symmetry_Int_Tables_number   1
_chemical_formula_structural   LuBiO3
_chemical_formula_sum   'Lu6 Bi6 O18'
_cell_volume   457.77970491
_cell_formula_units_Z   6
loop_
 _symmetry_equiv_pos_site_id
 _symmetry_equiv_pos_as_xyz
  1  'x, y, z'
loop_
 _atom_site_type_symbol
 _atom_site_label
 _atom_site_symmetry_multiplicity
 _atom_site_fract_x
 _atom_site_fract_y
 _atom_site_fract_z
 _atom_site_occupancy
  Lu  Lu0  1  0.00000000  0.00000000  0.14517100  1
  Lu  Lu1  1  0.66666667  0.33333333  0.18816233  1
  Lu  Lu2  1  0.66666667  0.33333333  0.47850433  1
  Lu  Lu3  1  0.33333333  0.66666667  0.52149567  1
  Lu  Lu4  1  0.33333333  0.66666667  0.81183767  1
  Lu  Lu5  1  0.00000000  0.00000000  0.85482900  1
  Bi  Bi6  1  0.33333333  0.66666667  0.02544267  1
  Bi  Bi7  1  0.33333333  0.66666667  0.30789067  1
  Bi  Bi8  1  0.00000000  0.00000000  0.35877600  1
  Bi  Bi9  1  0.00000000  0.00000000  0.64122400  1
  Bi  Bi10  1  0.66666667  0.33333333  0.69210933  1
  Bi  Bi11  1  0.66666667  0.33333333  0.97455733  1
  O  O12  1  0.69831067  0.63223433  0.08543033  1
  O  O13  1  0.93392367  0.30168933  0.08543033  1
  O  O14  1  0.36776567  0.06607633  0.08543033  1
  O  O15  1  0.29890100  0.26725700  0.24790300  1
  O  O16  1  0.73274300  0.03164400  0.24790300  1
  O  O17  1  0.96835600  0.70109900  0.24790300  1
  O  O18  1  0.36497733  0.96556767  0.41876367  1
  O  O19  1  0.60059033  0.63502267  0.41876367  1
  O  O20  1  0.03443233  0.39940967  0.41876367  1
  O  O21  1  0.96556767  0.60059033  0.58123633  1
  O  O22  1  0.39940967  0.36497733  0.58123633  1
  O  O23  1  0.63502267  0.03443233  0.58123633  1
  O  O24  1  0.03164400  0.29890100  0.75209700  1
  O  O25  1  0.26725700  0.96835600  0.75209700  1
  O  O26  1  0.70109900  0.73274300  0.75209700  1
  O  O27  1  0.63223433  0.93392367  0.91456967  1
  O  O28  1  0.06607633  0.69831067  0.91456967  1
  O  O29  1  0.30168933  0.36776567  0.91456967  1
