# generated using pymatgen
data_MgMnO3
_symmetry_space_group_name_H-M   'P 1'
_cell_length_a   5.02276946
_cell_length_b   5.02276946
_cell_length_c   13.89410676
_cell_angle_alpha   90.00000000
_cell_angle_beta   90.00000000
_cell_angle_gamma   120.00000000
_symmetry_Int_Tables_number   1
_chemical_formula_structural   MgMnO3
_chemical_formula_sum   'Mg6 Mn6 O18'
_cell_volume   303.56224349
_cell_formula_units_Z   6
loop_
 _symmetry_equiv_pos_site_id
 _symmetry_equiv_pos_as_xyz
  1  'x, y, z'
loop_
 _atom_site_type_symbol
 _atom_site_label
 _atom_site_symmetry_multiplicity
 _atom_site_fract_x
 _atom_site_fract_y
 _atom_site_fract_z
 _atom_site_occupancy
  Mg  Mg0  1  0.66666667  0.33333333  0.19295733  1
  Mg  Mg1  1  0.00000000  0.00000000  0.14037600  1
  Mg  Mg2  1  0.33333333  0.66666667  0.52629067  1
  Mg  Mg3  1  0.66666667  0.33333333  0.47370933  1
  Mg  Mg4  1  0.00000000  0.00000000  0.85962400  1
  Mg  Mg5  1  0.33333333  0.66666667  0.80704267  1
  Mn  Mn6  1  0.33333333  0.66666667  0.32447433  1
  Mn  Mn7  1  0.33333333  0.66666667  0.00885900  1
  Mn  Mn8  1  0.00000000  0.00000000  0.65780767  1
  Mn  Mn9  1  0.00000000  0.00000000  0.34219233  1
  Mn  Mn10  1  0.66666667  0.33333333  0.99114100  1
  Mn  Mn11  1  0.66666667  0.33333333  0.67552567  1
  O  O12  1  0.29095667  0.31435333  0.25515533  1
  O  O13  1  0.02339667  0.70904333  0.25515533  1
  O  O14  1  0.68564667  0.97660333  0.25515533  1
  O  O15  1  0.98102000  0.35673000  0.07817800  1
  O  O16  1  0.64327000  0.62429000  0.07817800  1
  O  O17  1  0.37571000  0.01898000  0.07817800  1
  O  O18  1  0.95762333  0.64768667  0.58848867  1
  O  O19  1  0.69006333  0.04237667  0.58848867  1
  O  O20  1  0.35231333  0.30993667  0.58848867  1
  O  O21  1  0.64768667  0.69006333  0.41151133  1
  O  O22  1  0.30993667  0.95762333  0.41151133  1
  O  O23  1  0.04237667  0.35231333  0.41151133  1
  O  O24  1  0.62429000  0.98102000  0.92182200  1
  O  O25  1  0.35673000  0.37571000  0.92182200  1
  O  O26  1  0.01898000  0.64327000  0.92182200  1
  O  O27  1  0.31435333  0.02339667  0.74484467  1
  O  O28  1  0.97660333  0.29095667  0.74484467  1
  O  O29  1  0.70904333  0.68564667  0.74484467  1
