# generated using pymatgen
data_Na3BiBPO7
_symmetry_space_group_name_H-M   'P 1'
_cell_length_a   5.41038400
_cell_length_b   7.15139800
_cell_length_c   9.31541803
_cell_angle_alpha   90.00000000
_cell_angle_beta   91.07186683
_cell_angle_gamma   90.00000000
_symmetry_Int_Tables_number   1
_chemical_formula_structural   Na3BiBPO7
_chemical_formula_sum   'Na6 Bi2 B2 P2 O14'
_cell_volume   360.36730931
_cell_formula_units_Z   2
loop_
 _symmetry_equiv_pos_site_id
 _symmetry_equiv_pos_as_xyz
  1  'x, y, z'
loop_
 _atom_site_type_symbol
 _atom_site_label
 _atom_site_symmetry_multiplicity
 _atom_site_fract_x
 _atom_site_fract_y
 _atom_site_fract_z
 _atom_site_occupancy
  Na  Na0  1  0.75706800  0.75000000  0.07076900  1
  Na  Na1  1  0.24909100  0.99250600  0.24173000  1
  Na  Na2  1  0.24909100  0.50749400  0.24173000  1
  Na  Na3  1  0.75090900  0.49250600  0.75827000  1
  Na  Na4  1  0.75090900  0.00749400  0.75827000  1
  Na  Na5  1  0.24293200  0.25000000  0.92923100  1
  Bi  Bi6  1  0.77057900  0.25000000  0.34793300  1
  Bi  Bi7  1  0.22942100  0.75000000  0.65206700  1
  B  B8  1  0.73376500  0.25000000  0.05780300  1
  B  B9  1  0.26623500  0.75000000  0.94219700  1
  P  P10  1  0.70364500  0.75000000  0.40354600  1
  P  P11  1  0.29635500  0.25000000  0.59645400  1
  O  O12  1  0.28330500  0.75000000  0.08591200  1
  O  O13  1  0.96350600  0.25000000  0.13539700  1
  O  O14  1  0.52336000  0.25000000  0.14702400  1
  O  O15  1  0.80708000  0.92213900  0.31986900  1
  O  O16  1  0.80708000  0.57786100  0.31986900  1
  O  O17  1  0.41784600  0.75000000  0.39816900  1
  O  O18  1  0.21181700  0.25000000  0.43412200  1
  O  O19  1  0.78818300  0.75000000  0.56587800  1
  O  O20  1  0.58215400  0.25000000  0.60183100  1
  O  O21  1  0.19292000  0.42213900  0.68013100  1
  O  O22  1  0.19292000  0.07786100  0.68013100  1
  O  O23  1  0.47664000  0.75000000  0.85297600  1
  O  O24  1  0.03649400  0.75000000  0.86460300  1
  O  O25  1  0.71669500  0.25000000  0.91408800  1
