# generated using pymatgen
data_Sb6O5F8
_symmetry_space_group_name_H-M   'P 1'
_cell_length_a   6.34341300
_cell_length_b   5.89288300
_cell_length_c   34.43176012
_cell_angle_alpha   90.00000000
_cell_angle_beta   91.99480654
_cell_angle_gamma   90.00000000
_symmetry_Int_Tables_number   1
_chemical_formula_structural   Sb6O5F8
_chemical_formula_sum   'Sb24 O20 F32'
_cell_volume   1286.31330617
_cell_formula_units_Z   4
loop_
 _symmetry_equiv_pos_site_id
 _symmetry_equiv_pos_as_xyz
  1  'x, y, z'
loop_
 _atom_site_type_symbol
 _atom_site_label
 _atom_site_symmetry_multiplicity
 _atom_site_fract_x
 _atom_site_fract_y
 _atom_site_fract_z
 _atom_site_occupancy
  Sb  Sb0  1  0.71517000  0.24388300  0.48805700  1
  Sb  Sb1  1  0.71517000  0.25611700  0.98805700  1
  Sb  Sb2  1  0.72170000  0.82852100  0.75423100  1
  Sb  Sb3  1  0.72170000  0.67147900  0.25423100  1
  Sb  Sb4  1  0.69149100  0.35479500  0.16696900  1
  Sb  Sb5  1  0.69686300  0.19197800  0.83880000  1
  Sb  Sb6  1  0.69686300  0.30802200  0.33880000  1
  Sb  Sb7  1  0.69149100  0.14520500  0.66696900  1
  Sb  Sb8  1  0.67851100  0.81380000  0.58298300  1
  Sb  Sb9  1  0.74212200  0.83632500  0.91637600  1
  Sb  Sb10  1  0.67851100  0.68620000  0.08298300  1
  Sb  Sb11  1  0.74212200  0.66367500  0.41637600  1
  Sb  Sb12  1  0.25787800  0.33632500  0.58362400  1
  Sb  Sb13  1  0.32148900  0.18620000  0.41701700  1
  Sb  Sb14  1  0.32148900  0.31380000  0.91701700  1
  Sb  Sb15  1  0.25787800  0.16367500  0.08362400  1
  Sb  Sb16  1  0.30313700  0.69197800  0.66120000  1
  Sb  Sb17  1  0.30850900  0.85479500  0.33303100  1
  Sb  Sb18  1  0.30313700  0.80802200  0.16120000  1
  Sb  Sb19  1  0.30850900  0.64520500  0.83303100  1
  Sb  Sb20  1  0.27830000  0.17147900  0.24576900  1
  Sb  Sb21  1  0.27830000  0.32852100  0.74576900  1
  Sb  Sb22  1  0.28483000  0.74388300  0.01194300  1
  Sb  Sb23  1  0.28483000  0.75611700  0.51194300  1
  O  O24  1  0.46999300  0.50409900  0.78918600  1
  O  O25  1  0.46999300  0.99590100  0.28918600  1
  O  O26  1  0.49854100  0.06620600  0.36987200  1
  O  O27  1  0.46013800  0.03519600  0.13013400  1
  O  O28  1  0.49854100  0.43379400  0.86987200  1
  O  O29  1  0.46013800  0.46480400  0.63013400  1
  O  O30  1  0.43709000  0.96116100  0.05132000  1
  O  O31  1  0.50940800  0.02748200  0.45758300  1
  O  O32  1  0.43709000  0.53883900  0.55132000  1
  O  O33  1  0.50940800  0.47251800  0.95758300  1
  O  O34  1  0.49059200  0.52748200  0.04241700  1
  O  O35  1  0.56291000  0.03883900  0.94868000  1
  O  O36  1  0.49059200  0.97251800  0.54241700  1
  O  O37  1  0.56291000  0.46116100  0.44868000  1
  O  O38  1  0.53986200  0.53519600  0.36986600  1
  O  O39  1  0.50145900  0.56620600  0.13012800  1
  O  O40  1  0.53986200  0.96480400  0.86986600  1
  O  O41  1  0.50145900  0.93379400  0.63012800  1
  O  O42  1  0.53000700  0.00409900  0.71081400  1
  O  O43  1  0.53000700  0.49590100  0.21081400  1
  F  F44  1  0.04953800  0.90852600  0.53933200  1
  F  F45  1  0.94960000  0.94603600  0.96247600  1
  F  F46  1  0.04953800  0.59147400  0.03933200  1
  F  F47  1  0.94960000  0.55396400  0.46247600  1
  F  F48  1  0.81315400  0.12801000  0.59585400  1
  F  F49  1  0.89784500  0.12730300  0.89150100  1
  F  F50  1  0.81315400  0.37199000  0.09585400  1
  F  F51  1  0.89784500  0.37269700  0.39150100  1
  F  F52  1  0.88497400  0.86933900  0.67141000  1
  F  F53  1  0.85358300  0.84751900  0.81448500  1
  F  F54  1  0.85358300  0.65248100  0.31448500  1
  F  F55  1  0.88497400  0.63066100  0.17141000  1
  F  F56  1  0.88913800  0.12054800  0.75208700  1
  F  F57  1  0.88913800  0.37945200  0.25208700  1
  F  F58  1  0.49889700  0.99760500  0.21181400  1
  F  F59  1  0.49889700  0.50239500  0.71181400  1
  F  F60  1  0.50110300  0.00239500  0.78818600  1
  F  F61  1  0.50110300  0.49760500  0.28818600  1
  F  F62  1  0.11086200  0.87945200  0.24791300  1
  F  F63  1  0.11086200  0.62054800  0.74791300  1
  F  F64  1  0.14641700  0.34751900  0.68551500  1
  F  F65  1  0.11502600  0.13066100  0.32859000  1
  F  F66  1  0.11502600  0.36933900  0.82859000  1
  F  F67  1  0.14641700  0.15248100  0.18551500  1
  F  F68  1  0.10215500  0.87269700  0.10849900  1
  F  F69  1  0.18684600  0.87199000  0.40414600  1
  F  F70  1  0.10215500  0.62730300  0.60849900  1
  F  F71  1  0.18684600  0.62801000  0.90414600  1
  F  F72  1  0.05040000  0.44603600  0.53752400  1
  F  F73  1  0.95046200  0.40852600  0.96066800  1
  F  F74  1  0.05040000  0.05396400  0.03752400  1
  F  F75  1  0.95046200  0.09147400  0.46066800  1
