# generated using pymatgen
data_Gd3InO6
_symmetry_space_group_name_H-M   'P 1'
_cell_length_a   9.09692800
_cell_length_b   11.43698400
_cell_length_c   5.67917100
_cell_angle_alpha   90.00000000
_cell_angle_beta   90.00000000
_cell_angle_gamma   90.00000000
_symmetry_Int_Tables_number   1
_chemical_formula_structural   Gd3InO6
_chemical_formula_sum   'Gd12 In4 O24'
_cell_volume   590.86901518
_cell_formula_units_Z   4
loop_
 _symmetry_equiv_pos_site_id
 _symmetry_equiv_pos_as_xyz
  1  'x, y, z'
loop_
 _atom_site_type_symbol
 _atom_site_label
 _atom_site_symmetry_multiplicity
 _atom_site_fract_x
 _atom_site_fract_y
 _atom_site_fract_z
 _atom_site_occupancy
  Gd  Gd0  1  0.19508900  0.89521000  0.53069300  1
  Gd  Gd1  1  0.19508900  0.10479000  0.03069300  1
  Gd  Gd2  1  0.50000000  0.10095300  0.57975000  1
  Gd  Gd3  1  0.50000000  0.89904700  0.07975000  1
  Gd  Gd4  1  0.80491100  0.89521000  0.53069300  1
  Gd  Gd5  1  0.80491100  0.10479000  0.03069300  1
  Gd  Gd6  1  0.69508900  0.39521000  0.53069300  1
  Gd  Gd7  1  0.69508900  0.60479000  0.03069300  1
  Gd  Gd8  1  0.00000000  0.60095300  0.57975000  1
  Gd  Gd9  1  0.00000000  0.39904700  0.07975000  1
  Gd  Gd10  1  0.30491100  0.39521000  0.53069300  1
  Gd  Gd11  1  0.30491100  0.60479000  0.03069300  1
  In  In12  1  0.50000000  0.31002300  0.01444900  1
  In  In13  1  0.50000000  0.68997700  0.51444900  1
  In  In14  1  0.00000000  0.81002300  0.01444900  1
  In  In15  1  0.00000000  0.18997700  0.51444900  1
  O  O16  1  0.33981100  0.98269600  0.80426400  1
  O  O17  1  0.33981100  0.01730400  0.30426400  1
  O  O18  1  0.33460400  0.23218900  0.80875800  1
  O  O19  1  0.33460400  0.76781100  0.30875800  1
  O  O20  1  0.50000000  0.47224300  0.84132400  1
  O  O21  1  0.50000000  0.28146500  0.36974800  1
  O  O22  1  0.50000000  0.71853500  0.86974800  1
  O  O23  1  0.50000000  0.52775700  0.34132400  1
  O  O24  1  0.66539600  0.23218900  0.80875800  1
  O  O25  1  0.66539600  0.76781100  0.30875800  1
  O  O26  1  0.66018900  0.01730400  0.30426400  1
  O  O27  1  0.66018900  0.98269600  0.80426400  1
  O  O28  1  0.83981100  0.48269600  0.80426400  1
  O  O29  1  0.83981100  0.51730400  0.30426400  1
  O  O30  1  0.83460400  0.73218900  0.80875800  1
  O  O31  1  0.83460400  0.26781100  0.30875800  1
  O  O32  1  0.00000000  0.97224300  0.84132400  1
  O  O33  1  0.00000000  0.78146500  0.36974800  1
  O  O34  1  0.00000000  0.21853500  0.86974800  1
  O  O35  1  0.00000000  0.02775700  0.34132400  1
  O  O36  1  0.16539600  0.73218900  0.80875800  1
  O  O37  1  0.16539600  0.26781100  0.30875800  1
  O  O38  1  0.16018900  0.51730400  0.30426400  1
  O  O39  1  0.16018900  0.48269600  0.80426400  1
