# generated using pymatgen
data_DyYO3
_symmetry_space_group_name_H-M   'P 1'
_cell_length_a   6.44561635
_cell_length_b   6.44561635
_cell_length_c   12.80003900
_cell_angle_alpha   90.00000000
_cell_angle_beta   90.00000000
_cell_angle_gamma   120.00000000
_symmetry_Int_Tables_number   1
_chemical_formula_structural   DyYO3
_chemical_formula_sum   'Dy6 Y6 O18'
_cell_volume   460.54368191
_cell_formula_units_Z   6
loop_
 _symmetry_equiv_pos_site_id
 _symmetry_equiv_pos_as_xyz
  1  'x, y, z'
loop_
 _atom_site_type_symbol
 _atom_site_label
 _atom_site_symmetry_multiplicity
 _atom_site_fract_x
 _atom_site_fract_y
 _atom_site_fract_z
 _atom_site_occupancy
  Dy  Dy0  1  0.66683900  0.66683900  0.00138800  1
  Dy  Dy1  1  0.33316100  0.33316100  0.50138800  1
  Dy  Dy2  1  0.33316100  0.00000000  0.00138800  1
  Dy  Dy3  1  0.66683900  0.00000000  0.50138800  1
  Dy  Dy4  1  0.00000000  0.66683900  0.50138800  1
  Dy  Dy5  1  0.00000000  0.33316100  0.00138800  1
  Y  Y6  1  0.66666667  0.33333333  0.73676500  1
  Y  Y7  1  0.00000000  0.00000000  0.76991800  1
  Y  Y8  1  0.00000000  0.00000000  0.26991800  1
  Y  Y9  1  0.66666667  0.33333333  0.23676500  1
  Y  Y10  1  0.33333333  0.66666667  0.23676500  1
  Y  Y11  1  0.33333333  0.66666667  0.73676500  1
  O  O12  1  0.69400400  0.69400400  0.17541700  1
  O  O13  1  0.63644900  0.63644900  0.82902000  1
  O  O14  1  0.36355100  0.36355100  0.32902000  1
  O  O15  1  0.30599600  0.30599600  0.67541700  1
  O  O16  1  0.66666667  0.33333333  0.53003100  1
  O  O17  1  0.00000000  0.00000000  0.96663000  1
  O  O18  1  0.00000000  0.00000000  0.46663000  1
  O  O19  1  0.66666667  0.33333333  0.03003100  1
  O  O20  1  0.30599600  0.00000000  0.17541700  1
  O  O21  1  0.36355100  0.00000000  0.82902000  1
  O  O22  1  0.00000000  0.69400400  0.67541700  1
  O  O23  1  0.63644900  0.00000000  0.32902000  1
  O  O24  1  0.69400400  0.00000000  0.67541700  1
  O  O25  1  0.00000000  0.63644900  0.32902000  1
  O  O26  1  0.33333333  0.66666667  0.03003100  1
  O  O27  1  0.33333333  0.66666667  0.53003100  1
  O  O28  1  0.00000000  0.36355100  0.82902000  1
  O  O29  1  0.00000000  0.30599600  0.17541700  1
