# generated using pymatgen
data_Li2Sn(BO3)2
_symmetry_space_group_name_H-M   'P 1'
_cell_length_a   8.15451900
_cell_length_b   6.50745100
_cell_length_c   9.94281800
_cell_angle_alpha   90.00000000
_cell_angle_beta   115.81856554
_cell_angle_gamma   90.00000000
_symmetry_Int_Tables_number   1
_chemical_formula_structural   Li2Sn(BO3)2
_chemical_formula_sum   'Li8 Sn4 B8 O24'
_cell_volume   474.94901748
_cell_formula_units_Z   4
loop_
 _symmetry_equiv_pos_site_id
 _symmetry_equiv_pos_as_xyz
  1  'x, y, z'
loop_
 _atom_site_type_symbol
 _atom_site_label
 _atom_site_symmetry_multiplicity
 _atom_site_fract_x
 _atom_site_fract_y
 _atom_site_fract_z
 _atom_site_occupancy
  Li  Li0  1  0.59356900  0.00664700  0.49332800  1
  Li  Li1  1  0.42956900  0.50210300  0.01654600  1
  Li  Li2  1  0.80558300  0.52347300  0.54654400  1
  Li  Li3  1  0.80558300  0.47652700  0.04654400  1
  Li  Li4  1  0.27001800  0.83049000  0.85449000  1
  Li  Li5  1  0.59356900  0.99335300  0.99332800  1
  Li  Li6  1  0.27001800  0.16951000  0.35449000  1
  Li  Li7  1  0.42956900  0.49789700  0.51654600  1
  Sn  Sn8  1  0.82271400  0.79646300  0.82816300  1
  Sn  Sn9  1  0.82271400  0.20353700  0.32816300  1
  Sn  Sn10  1  0.19147900  0.29039400  0.69200500  1
  Sn  Sn11  1  0.19147900  0.70960600  0.19200500  1
  B  B12  1  0.46900600  0.90872100  0.19212800  1
  B  B13  1  0.53510800  0.39421000  0.30172500  1
  B  B14  1  0.07132800  0.42491700  0.87906600  1
  B  B15  1  0.92703900  0.91882300  0.61056100  1
  B  B16  1  0.07132800  0.57508300  0.37906600  1
  B  B17  1  0.92703900  0.08117700  0.11056100  1
  B  B18  1  0.46900600  0.09127900  0.69212800  1
  B  B19  1  0.53510800  0.60579000  0.80172500  1
  O  O20  1  0.36557300  0.45345500  0.28754700  1
  O  O21  1  0.39250300  0.94538400  0.29233800  1
  O  O22  1  0.35941400  0.77685400  0.07468300  1
  O  O23  1  0.64866300  0.28707100  0.43267800  1
  O  O24  1  0.61353900  0.42159500  0.20515300  1
  O  O25  1  0.00586500  0.55294200  0.95940500  1
  O  O26  1  0.77714800  0.80774200  0.53324300  1
  O  O27  1  0.63130800  0.98042700  0.20317700  1
  O  O28  1  0.98167700  0.42861500  0.72386200  1
  O  O29  1  0.01723200  0.90265400  0.76698700  1
  O  O30  1  0.22762300  0.31374100  0.93582300  1
  O  O31  1  0.99547100  0.06809300  0.54596500  1
  O  O32  1  0.00586500  0.44705800  0.45940500  1
  O  O33  1  0.77714800  0.19225800  0.03324300  1
  O  O34  1  0.98167700  0.57138500  0.22386200  1
  O  O35  1  0.01723200  0.09734600  0.26698700  1
  O  O36  1  0.36557300  0.54654500  0.78754700  1
  O  O37  1  0.22762300  0.68625900  0.43582300  1
  O  O38  1  0.99547100  0.93190700  0.04596500  1
  O  O39  1  0.39250300  0.05461600  0.79233800  1
  O  O40  1  0.35941400  0.22314600  0.57468300  1
  O  O41  1  0.64866300  0.71292900  0.93267800  1
  O  O42  1  0.61353900  0.57840500  0.70515300  1
  O  O43  1  0.63130800  0.01957300  0.70317700  1
