# generated using pymatgen
data_Li2Mo(PO4)2
_symmetry_space_group_name_H-M   'P 1'
_cell_length_a   4.95365600
_cell_length_b   17.86117900
_cell_length_c   6.81480941
_cell_angle_alpha   90.00000000
_cell_angle_beta   94.97999178
_cell_angle_gamma   90.00000000
_symmetry_Int_Tables_number   1
_chemical_formula_structural   Li2Mo(PO4)2
_chemical_formula_sum   'Li8 Mo4 P8 O32'
_cell_volume   600.68550100
_cell_formula_units_Z   4
loop_
 _symmetry_equiv_pos_site_id
 _symmetry_equiv_pos_as_xyz
  1  'x, y, z'
loop_
 _atom_site_type_symbol
 _atom_site_label
 _atom_site_symmetry_multiplicity
 _atom_site_fract_x
 _atom_site_fract_y
 _atom_site_fract_z
 _atom_site_occupancy
  Li  Li0  1  0.03403000  0.38686100  0.72161900  1
  Li  Li1  1  0.54724400  0.30735700  0.90161700  1
  Li  Li2  1  0.45275600  0.80735700  0.09838300  1
  Li  Li3  1  0.04033800  0.05983700  0.06473800  1
  Li  Li4  1  0.46278900  0.62029100  0.73575900  1
  Li  Li5  1  0.53721100  0.12029100  0.26424100  1
  Li  Li6  1  0.96597000  0.88686100  0.27838100  1
  Li  Li7  1  0.95966200  0.55983700  0.93526200  1
  Mo  Mo8  1  0.05380000  0.37171700  0.24749200  1
  Mo  Mo9  1  0.46231300  0.62853500  0.26946700  1
  Mo  Mo10  1  0.94620000  0.87171700  0.75250800  1
  Mo  Mo11  1  0.53768700  0.12853500  0.73053300  1
  P  P12  1  0.08543800  0.21322400  0.97044400  1
  P  P13  1  0.41239000  0.78446100  0.52674700  1
  P  P14  1  0.91456200  0.71322400  0.02955600  1
  P  P15  1  0.51513300  0.46110700  0.02586700  1
  P  P16  1  0.48486700  0.96110700  0.97413300  1
  P  P17  1  0.98400100  0.53573900  0.48351500  1
  P  P18  1  0.58761000  0.28446100  0.47325300  1
  P  P19  1  0.01599900  0.03573900  0.51648500  1
  O  O20  1  0.13141600  0.29819000  0.01383500  1
  O  O21  1  0.27460100  0.80448000  0.71957000  1
  O  O22  1  0.72539900  0.30448000  0.28043000  1
  O  O23  1  0.59363200  0.19707200  0.48726500  1
  O  O24  1  0.97030900  0.44902900  0.46686000  1
  O  O25  1  0.40636800  0.69707200  0.51273500  1
  O  O26  1  0.38563900  0.43509500  0.21440900  1
  O  O27  1  0.61436100  0.93509500  0.78559100  1
  O  O28  1  0.12380400  0.55942500  0.67979100  1
  O  O29  1  0.82498200  0.43681000  0.04051900  1
  O  O30  1  0.62174300  0.92604100  0.15694700  1
  O  O31  1  0.71628200  0.81067900  0.55498200  1
  O  O32  1  0.19973400  0.16174100  0.13277000  1
  O  O33  1  0.22578700  0.69702500  0.07360600  1
  O  O34  1  0.88318200  0.06791500  0.69987800  1
  O  O35  1  0.31765400  0.06567700  0.53214900  1
  O  O36  1  0.68234600  0.56567700  0.46785100  1
  O  O37  1  0.72465600  0.32015100  0.65669900  1
  O  O38  1  0.52023900  0.54923800  0.02914400  1
  O  O39  1  0.47976100  0.04923800  0.97085600  1
  O  O40  1  0.02969100  0.94902900  0.53314000  1
  O  O41  1  0.27534400  0.82015100  0.34330100  1
  O  O42  1  0.17501800  0.93681000  0.95948100  1
  O  O43  1  0.23443500  0.20142900  0.77759200  1
  O  O44  1  0.76556500  0.70142900  0.22240800  1
  O  O45  1  0.77421300  0.19702500  0.92639400  1
  O  O46  1  0.28371800  0.31067900  0.44501800  1
  O  O47  1  0.87619600  0.05942500  0.32020900  1
  O  O48  1  0.37825700  0.42604100  0.84305300  1
  O  O49  1  0.11681800  0.56791500  0.30012200  1
  O  O50  1  0.86858400  0.79819000  0.98616500  1
  O  O51  1  0.80026600  0.66174100  0.86723000  1
