# generated using pymatgen
data_NaTaO3
_symmetry_space_group_name_H-M   'P 1'
_cell_length_a   10.49759000
_cell_length_b   10.49759000
_cell_length_c   10.49759000
_cell_angle_alpha   90.00000000
_cell_angle_beta   90.00000000
_cell_angle_gamma   90.00000000
_symmetry_Int_Tables_number   1
_chemical_formula_structural   NaTaO3
_chemical_formula_sum   'Na16 Ta16 O48'
_cell_volume   1156.82807544
_cell_formula_units_Z   16
loop_
 _symmetry_equiv_pos_site_id
 _symmetry_equiv_pos_as_xyz
  1  'x, y, z'
loop_
 _atom_site_type_symbol
 _atom_site_label
 _atom_site_symmetry_multiplicity
 _atom_site_fract_x
 _atom_site_fract_y
 _atom_site_fract_z
 _atom_site_occupancy
  Na  Na0  1  0.62500000  0.87500000  0.37500000  1
  Na  Na1  1  0.12500000  0.12500000  0.12500000  1
  Na  Na2  1  0.87500000  0.87500000  0.12500000  1
  Na  Na3  1  0.37500000  0.12500000  0.37500000  1
  Na  Na4  1  0.62500000  0.37500000  0.87500000  1
  Na  Na5  1  0.12500000  0.62500000  0.62500000  1
  Na  Na6  1  0.87500000  0.37500000  0.62500000  1
  Na  Na7  1  0.37500000  0.62500000  0.87500000  1
  Na  Na8  1  0.12500000  0.87500000  0.87500000  1
  Na  Na9  1  0.62500000  0.12500000  0.62500000  1
  Na  Na10  1  0.37500000  0.87500000  0.62500000  1
  Na  Na11  1  0.87500000  0.12500000  0.87500000  1
  Na  Na12  1  0.12500000  0.37500000  0.37500000  1
  Na  Na13  1  0.62500000  0.62500000  0.12500000  1
  Na  Na14  1  0.37500000  0.37500000  0.12500000  1
  Na  Na15  1  0.87500000  0.62500000  0.37500000  1
  Ta  Ta16  1  0.12500000  0.62500000  0.12500000  1
  Ta  Ta17  1  0.12500000  0.87500000  0.37500000  1
  Ta  Ta18  1  0.37500000  0.87500000  0.12500000  1
  Ta  Ta19  1  0.37500000  0.62500000  0.37500000  1
  Ta  Ta20  1  0.12500000  0.12500000  0.62500000  1
  Ta  Ta21  1  0.12500000  0.37500000  0.87500000  1
  Ta  Ta22  1  0.37500000  0.37500000  0.62500000  1
  Ta  Ta23  1  0.37500000  0.12500000  0.87500000  1
  Ta  Ta24  1  0.62500000  0.62500000  0.62500000  1
  Ta  Ta25  1  0.62500000  0.87500000  0.87500000  1
  Ta  Ta26  1  0.87500000  0.87500000  0.62500000  1
  Ta  Ta27  1  0.87500000  0.62500000  0.87500000  1
  Ta  Ta28  1  0.62500000  0.12500000  0.12500000  1
  Ta  Ta29  1  0.62500000  0.37500000  0.37500000  1
  Ta  Ta30  1  0.87500000  0.37500000  0.12500000  1
  Ta  Ta31  1  0.87500000  0.12500000  0.37500000  1
  O  O32  1  0.19489000  0.00000000  0.50000000  1
  O  O33  1  0.25000000  0.94489000  0.25000000  1
  O  O34  1  0.25000000  0.75000000  0.44489000  1
  O  O35  1  0.25000000  0.75000000  0.05511000  1
  O  O36  1  0.25000000  0.55511000  0.25000000  1
  O  O37  1  0.80511000  0.00000000  0.50000000  1
  O  O38  1  0.44489000  0.75000000  0.25000000  1
  O  O39  1  0.50000000  0.69489000  0.50000000  1
  O  O40  1  0.00000000  0.00000000  0.30511000  1
  O  O41  1  0.50000000  0.00000000  0.19489000  1
  O  O42  1  0.50000000  0.30511000  0.50000000  1
  O  O43  1  0.05511000  0.75000000  0.25000000  1
  O  O44  1  0.19489000  0.50000000  0.00000000  1
  O  O45  1  0.25000000  0.44489000  0.75000000  1
  O  O46  1  0.25000000  0.25000000  0.94489000  1
  O  O47  1  0.25000000  0.25000000  0.55511000  1
  O  O48  1  0.25000000  0.05511000  0.75000000  1
  O  O49  1  0.80511000  0.50000000  0.00000000  1
  O  O50  1  0.44489000  0.25000000  0.75000000  1
  O  O51  1  0.50000000  0.19489000  0.00000000  1
  O  O52  1  0.00000000  0.50000000  0.80511000  1
  O  O53  1  0.50000000  0.50000000  0.69489000  1
  O  O54  1  0.50000000  0.80511000  0.00000000  1
  O  O55  1  0.05511000  0.25000000  0.75000000  1
  O  O56  1  0.69489000  0.00000000  0.00000000  1
  O  O57  1  0.75000000  0.94489000  0.75000000  1
  O  O58  1  0.75000000  0.75000000  0.94489000  1
  O  O59  1  0.75000000  0.75000000  0.55511000  1
  O  O60  1  0.75000000  0.55511000  0.75000000  1
  O  O61  1  0.30511000  0.00000000  0.00000000  1
  O  O62  1  0.94489000  0.75000000  0.75000000  1
  O  O63  1  0.00000000  0.69489000  0.00000000  1
  O  O64  1  0.50000000  0.00000000  0.80511000  1
  O  O65  1  0.00000000  0.00000000  0.69489000  1
  O  O66  1  0.00000000  0.30511000  0.00000000  1
  O  O67  1  0.55511000  0.75000000  0.75000000  1
  O  O68  1  0.69489000  0.50000000  0.50000000  1
  O  O69  1  0.75000000  0.44489000  0.25000000  1
  O  O70  1  0.75000000  0.25000000  0.44489000  1
  O  O71  1  0.75000000  0.25000000  0.05511000  1
  O  O72  1  0.75000000  0.05511000  0.25000000  1
  O  O73  1  0.30511000  0.50000000  0.50000000  1
  O  O74  1  0.94489000  0.25000000  0.25000000  1
  O  O75  1  0.00000000  0.19489000  0.50000000  1
  O  O76  1  0.50000000  0.50000000  0.30511000  1
  O  O77  1  0.00000000  0.50000000  0.19489000  1
  O  O78  1  0.00000000  0.80511000  0.50000000  1
  O  O79  1  0.55511000  0.25000000  0.25000000  1
