# generated using pymatgen
data_Ca2In2O5
_symmetry_space_group_name_H-M   'P 1'
_cell_length_a   5.89627400
_cell_length_b   5.91809800
_cell_length_c   15.16024100
_cell_angle_alpha   90.00000000
_cell_angle_beta   90.00000000
_cell_angle_gamma   90.00000000
_symmetry_Int_Tables_number   1
_chemical_formula_structural   Ca2In2O5
_chemical_formula_sum   'Ca8 In8 O20'
_cell_volume   529.01247651
_cell_formula_units_Z   4
loop_
 _symmetry_equiv_pos_site_id
 _symmetry_equiv_pos_as_xyz
  1  'x, y, z'
loop_
 _atom_site_type_symbol
 _atom_site_label
 _atom_site_symmetry_multiplicity
 _atom_site_fract_x
 _atom_site_fract_y
 _atom_site_fract_z
 _atom_site_occupancy
  Ca  Ca0  1  0.98057200  0.44177700  0.61154700  1
  Ca  Ca1  1  0.98057200  0.44177700  0.88845300  1
  Ca  Ca2  1  0.51942800  0.94177700  0.61154700  1
  Ca  Ca3  1  0.51942800  0.94177700  0.88845300  1
  Ca  Ca4  1  0.48057200  0.05822300  0.11154700  1
  Ca  Ca5  1  0.48057200  0.05822300  0.38845300  1
  Ca  Ca6  1  0.01942800  0.55822300  0.11154700  1
  Ca  Ca7  1  0.01942800  0.55822300  0.38845300  1
  In  In8  1  0.00000000  0.00000000  0.50000000  1
  In  In9  1  0.00000000  0.00000000  0.00000000  1
  In  In10  1  0.95240500  0.07038900  0.25000000  1
  In  In11  1  0.54759500  0.57038900  0.25000000  1
  In  In12  1  0.50000000  0.50000000  0.50000000  1
  In  In13  1  0.50000000  0.50000000  0.00000000  1
  In  In14  1  0.45240500  0.42961100  0.75000000  1
  In  In15  1  0.04759500  0.92961100  0.75000000  1
  O  O16  1  0.88698300  0.05954000  0.64015400  1
  O  O17  1  0.88698300  0.05954000  0.85984600  1
  O  O18  1  0.88194800  0.42453800  0.25000000  1
  O  O19  1  0.80611500  0.30252800  0.03031300  1
  O  O20  1  0.80611500  0.30252800  0.46968700  1
  O  O21  1  0.69388500  0.80252800  0.03031300  1
  O  O22  1  0.69388500  0.80252800  0.46968700  1
  O  O23  1  0.61805200  0.92453800  0.25000000  1
  O  O24  1  0.61301700  0.55954000  0.64015400  1
  O  O25  1  0.61301700  0.55954000  0.85984600  1
  O  O26  1  0.38698300  0.44046000  0.14015400  1
  O  O27  1  0.38698300  0.44046000  0.35984600  1
  O  O28  1  0.38194800  0.07546200  0.75000000  1
  O  O29  1  0.30611500  0.19747200  0.53031300  1
  O  O30  1  0.30611500  0.19747200  0.96968700  1
  O  O31  1  0.19388500  0.69747200  0.96968700  1
  O  O32  1  0.19388500  0.69747200  0.53031300  1
  O  O33  1  0.11805200  0.57546200  0.75000000  1
  O  O34  1  0.11301700  0.94046000  0.14015400  1
  O  O35  1  0.11301700  0.94046000  0.35984600  1
