# generated using pymatgen
data_Lu3AlO6
_symmetry_space_group_name_H-M   'P 1'
_cell_length_a   8.66076600
_cell_length_b   10.86745000
_cell_length_c   5.27533100
_cell_angle_alpha   90.00000000
_cell_angle_beta   90.00000000
_cell_angle_gamma   90.00000000
_symmetry_Int_Tables_number   1
_chemical_formula_structural   Lu3AlO6
_chemical_formula_sum   'Lu12 Al4 O24'
_cell_volume   496.51648260
_cell_formula_units_Z   4
loop_
 _symmetry_equiv_pos_site_id
 _symmetry_equiv_pos_as_xyz
  1  'x, y, z'
loop_
 _atom_site_type_symbol
 _atom_site_label
 _atom_site_symmetry_multiplicity
 _atom_site_fract_x
 _atom_site_fract_y
 _atom_site_fract_z
 _atom_site_occupancy
  Lu  Lu0  1  0.19308200  0.89421900  0.52418200  1
  Lu  Lu1  1  0.19308200  0.10578100  0.02418200  1
  Lu  Lu2  1  0.50000000  0.10148500  0.57236700  1
  Lu  Lu3  1  0.50000000  0.89851500  0.07236700  1
  Lu  Lu4  1  0.80691800  0.10578100  0.02418200  1
  Lu  Lu5  1  0.80691800  0.89421900  0.52418200  1
  Lu  Lu6  1  0.69308200  0.39421900  0.52418200  1
  Lu  Lu7  1  0.69308200  0.60578100  0.02418200  1
  Lu  Lu8  1  0.00000000  0.60148500  0.57236700  1
  Lu  Lu9  1  0.00000000  0.39851500  0.07236700  1
  Lu  Lu10  1  0.30691800  0.60578100  0.02418200  1
  Lu  Lu11  1  0.30691800  0.39421900  0.52418200  1
  Al  Al12  1  0.50000000  0.30510400  0.98762900  1
  Al  Al13  1  0.50000000  0.69489600  0.48762900  1
  Al  Al14  1  0.00000000  0.80510400  0.98762900  1
  Al  Al15  1  0.00000000  0.19489600  0.48762900  1
  O  O16  1  0.33911750  0.98259150  0.79825300  1
  O  O17  1  0.33911750  0.01740850  0.29825300  1
  O  O18  1  0.34417500  0.23561700  0.81787100  1
  O  O19  1  0.34417500  0.76438300  0.31787100  1
  O  O20  1  0.50000000  0.45624200  0.85185300  1
  O  O21  1  0.50000000  0.28647600  0.32218000  1
  O  O22  1  0.50000000  0.71352400  0.82218000  1
  O  O23  1  0.50000000  0.54375800  0.35185300  1
  O  O24  1  0.65582500  0.23561700  0.81787100  1
  O  O25  1  0.65582500  0.76438300  0.31787100  1
  O  O26  1  0.66088250  0.98259150  0.79825300  1
  O  O27  1  0.66088250  0.01740850  0.29825300  1
  O  O28  1  0.83911750  0.48259150  0.79825300  1
  O  O29  1  0.83911750  0.51740850  0.29825300  1
  O  O30  1  0.84417500  0.73561700  0.81787100  1
  O  O31  1  0.84417500  0.26438300  0.31787100  1
  O  O32  1  0.00000000  0.95624200  0.85185300  1
  O  O33  1  0.00000000  0.78647600  0.32218000  1
  O  O34  1  0.00000000  0.21352400  0.82218000  1
  O  O35  1  0.00000000  0.04375800  0.35185300  1
  O  O36  1  0.15582500  0.73561700  0.81787100  1
  O  O37  1  0.15582500  0.26438300  0.31787100  1
  O  O38  1  0.16088250  0.48259150  0.79825300  1
  O  O39  1  0.16088250  0.51740850  0.29825300  1
