# generated using pymatgen
data_Li2V3F8
_symmetry_space_group_name_H-M   'P 1'
_cell_length_a   6.27674193
_cell_length_b   6.27674193
_cell_length_c   15.16531871
_cell_angle_alpha   90.00000000
_cell_angle_beta   90.00000000
_cell_angle_gamma   120.00000000
_symmetry_Int_Tables_number   1
_chemical_formula_structural   Li2V3F8
_chemical_formula_sum   'Li6 V9 F24'
_cell_volume   517.42894529
_cell_formula_units_Z   3
loop_
 _symmetry_equiv_pos_site_id
 _symmetry_equiv_pos_as_xyz
  1  'x, y, z'
loop_
 _atom_site_type_symbol
 _atom_site_label
 _atom_site_symmetry_multiplicity
 _atom_site_fract_x
 _atom_site_fract_y
 _atom_site_fract_z
 _atom_site_occupancy
  Li  Li0  1  0.33333333  0.66666667  0.80783967  1
  Li  Li1  1  0.33333333  0.66666667  0.52549367  1
  Li  Li2  1  0.00000000  0.00000000  0.14117300  1
  Li  Li3  1  0.00000000  0.00000000  0.85882700  1
  Li  Li4  1  0.66666667  0.33333333  0.47450633  1
  Li  Li5  1  0.66666667  0.33333333  0.19216033  1
  V  V6  1  0.50000000  0.50000000  0.00000000  1
  V  V7  1  0.16666667  0.33333333  0.33333333  1
  V  V8  1  0.00000000  0.50000000  0.00000000  1
  V  V9  1  0.16666667  0.83333333  0.33333333  1
  V  V10  1  0.83333333  0.66666667  0.66666667  1
  V  V11  1  0.66666667  0.83333333  0.33333333  1
  V  V12  1  0.83333333  0.16666667  0.66666667  1
  V  V13  1  0.50000000  0.00000000  0.00000000  1
  V  V14  1  0.33333333  0.16666667  0.66666667  1
  F  F15  1  0.64854133  0.82427067  0.92162767  1
  F  F16  1  0.17572933  0.35145867  0.92162767  1
  F  F17  1  0.17572933  0.82427067  0.92162767  1
  F  F18  1  0.33333333  0.66666667  0.26277467  1
  F  F19  1  0.33333333  0.66666667  0.07055867  1
  F  F20  1  0.49093733  0.50906267  0.41170567  1
  F  F21  1  0.49093733  0.98187467  0.41170567  1
  F  F22  1  0.01812533  0.50906267  0.41170567  1
  F  F23  1  0.31520800  0.15760400  0.25496100  1
  F  F24  1  0.84239600  0.68479200  0.25496100  1
  F  F25  1  0.84239600  0.15760400  0.25496100  1
  F  F26  1  0.00000000  0.00000000  0.59610800  1
  F  F27  1  0.00000000  0.00000000  0.40389200  1
  F  F28  1  0.15760400  0.84239600  0.74503900  1
  F  F29  1  0.15760400  0.31520800  0.74503900  1
  F  F30  1  0.68479200  0.84239600  0.74503900  1
  F  F31  1  0.98187467  0.49093733  0.58829433  1
  F  F32  1  0.50906267  0.01812533  0.58829433  1
  F  F33  1  0.50906267  0.49093733  0.58829433  1
  F  F34  1  0.66666667  0.33333333  0.92944133  1
  F  F35  1  0.66666667  0.33333333  0.73722533  1
  F  F36  1  0.82427067  0.17572933  0.07837233  1
  F  F37  1  0.82427067  0.64854133  0.07837233  1
  F  F38  1  0.35145867  0.17572933  0.07837233  1
