# generated using pymatgen
data_Sn5P6O25
_symmetry_space_group_name_H-M   'P 1'
_cell_length_a   8.47785781
_cell_length_b   8.47785781
_cell_length_c   26.50196976
_cell_angle_alpha   90.00000000
_cell_angle_beta   90.00000000
_cell_angle_gamma   120.00000000
_symmetry_Int_Tables_number   1
_chemical_formula_structural   Sn5P6O25
_chemical_formula_sum   'Sn15 P18 O75'
_cell_volume   1649.60909335
_cell_formula_units_Z   3
loop_
 _symmetry_equiv_pos_site_id
 _symmetry_equiv_pos_as_xyz
  1  'x, y, z'
loop_
 _atom_site_type_symbol
 _atom_site_label
 _atom_site_symmetry_multiplicity
 _atom_site_fract_x
 _atom_site_fract_y
 _atom_site_fract_z
 _atom_site_occupancy
  Sn  Sn0  1  0.66666667  0.33333333  0.16020133  1
  Sn  Sn1  1  0.00000000  0.00000000  0.17313200  1
  Sn  Sn2  1  0.33333333  0.66666667  0.23840567  1
  Sn  Sn3  1  0.33333333  0.66666667  0.09492767  1
  Sn  Sn4  1  0.00000000  0.00000000  0.00000000  1
  Sn  Sn5  1  0.33333333  0.66666667  0.49353467  1
  Sn  Sn6  1  0.66666667  0.33333333  0.50646533  1
  Sn  Sn7  1  0.00000000  0.00000000  0.57173900  1
  Sn  Sn8  1  0.00000000  0.00000000  0.42826100  1
  Sn  Sn9  1  0.66666667  0.33333333  0.33333333  1
  Sn  Sn10  1  0.00000000  0.00000000  0.82686800  1
  Sn  Sn11  1  0.33333333  0.66666667  0.83979867  1
  Sn  Sn12  1  0.66666667  0.33333333  0.90507233  1
  Sn  Sn13  1  0.66666667  0.33333333  0.76159433  1
  Sn  Sn14  1  0.33333333  0.66666667  0.66666667  1
  P  P15  1  0.73133067  0.70302133  0.08937133  1
  P  P16  1  0.36968800  0.30502400  0.24396200  1
  P  P17  1  0.69497600  0.06466400  0.24396200  1
  P  P18  1  0.97169067  0.26866933  0.08937133  1
  P  P19  1  0.29697867  0.02830933  0.08937133  1
  P  P20  1  0.93533600  0.63031200  0.24396200  1
  P  P21  1  0.39799733  0.03635467  0.42270467  1
  P  P22  1  0.03635467  0.63835733  0.57729533  1
  P  P23  1  0.36164267  0.39799733  0.57729533  1
  P  P24  1  0.63835733  0.60200267  0.42270467  1
  P  P25  1  0.96364533  0.36164267  0.42270467  1
  P  P26  1  0.60200267  0.96364533  0.57729533  1
  P  P27  1  0.06466400  0.36968800  0.75603800  1
  P  P28  1  0.70302133  0.97169067  0.91062867  1
  P  P29  1  0.02830933  0.73133067  0.91062867  1
  P  P30  1  0.30502400  0.93533600  0.75603800  1
  P  P31  1  0.63031200  0.69497600  0.75603800  1
  P  P32  1  0.26866933  0.29697867  0.91062867  1
  O  O33  1  0.91221067  0.14296933  0.04310933  1
  O  O34  1  0.76842200  0.85467000  0.12838900  1
  O  O35  1  0.52133667  0.41958133  0.20494433  1
  O  O36  1  0.43590800  0.24554400  0.29022400  1
  O  O37  1  0.52940033  0.62737867  0.06924167  1
  O  O38  1  0.79922033  0.24895467  0.11302667  1
  O  O39  1  0.21693233  0.13255367  0.22030667  1
  O  O40  1  0.56868833  0.86273367  0.26409167  1
  O  O41  1  0.29404533  0.43131167  0.26409167  1
  O  O42  1  0.80963600  0.56409200  0.29022400  1
  O  O43  1  0.58041867  0.10175533  0.20494433  1
  O  O44  1  0.91562133  0.78306767  0.22030667  1
  O  O45  1  0.33333333  0.66666667  0.16666667  1
  O  O46  1  0.75104533  0.55026567  0.11302667  1
  O  O47  1  0.08624800  0.23157800  0.12838900  1
  O  O48  1  0.85703067  0.76924133  0.04310933  1
  O  O49  1  0.37262133  0.90202167  0.06924167  1
  O  O50  1  0.09797833  0.47059967  0.06924167  1
  O  O51  1  0.44973433  0.20077967  0.11302667  1
  O  O52  1  0.86744633  0.08437867  0.22030667  1
  O  O53  1  0.13726633  0.70595467  0.26409167  1
  O  O54  1  0.23075867  0.08778933  0.04310933  1
  O  O55  1  0.14533000  0.91375200  0.12838900  1
  O  O56  1  0.89824467  0.47866333  0.20494433  1
  O  O57  1  0.75445600  0.19036400  0.29022400  1
  O  O58  1  0.57887733  0.47630267  0.37644267  1
  O  O59  1  0.43508867  0.18800333  0.46172233  1
  O  O60  1  0.18800333  0.75291467  0.53827767  1
  O  O61  1  0.10257467  0.57887733  0.62355733  1
  O  O62  1  0.19606700  0.96071200  0.40257500  1
  O  O63  1  0.46588700  0.58228800  0.44636000  1
  O  O64  1  0.88359900  0.46588700  0.55364000  1
  O  O65  1  0.23535500  0.19606700  0.59742500  1
  O  O66  1  0.96071200  0.76464500  0.59742500  1
  O  O67  1  0.47630267  0.89742533  0.62355733  1
  O  O68  1  0.24708533  0.43508867  0.53827767  1
  O  O69  1  0.58228800  0.11640100  0.55364000  1
  O  O70  1  1.00000000  0.00000000  0.50000000  1
  O  O71  1  0.41771200  0.88359900  0.44636000  1
  O  O72  1  0.75291467  0.56491133  0.46172233  1
  O  O73  1  0.52369733  0.10257467  0.37644267  1
  O  O74  1  0.03928800  0.23535500  0.40257500  1
  O  O75  1  0.76464500  0.80393300  0.40257500  1
  O  O76  1  0.11640100  0.53411300  0.44636000  1
  O  O77  1  0.53411300  0.41771200  0.55364000  1
  O  O78  1  0.80393300  0.03928800  0.59742500  1
  O  O79  1  0.89742533  0.42112267  0.37644267  1
  O  O80  1  0.81199667  0.24708533  0.46172233  1
  O  O81  1  0.56491133  0.81199667  0.53827767  1
  O  O82  1  0.42112267  0.52369733  0.62355733  1
  O  O83  1  0.24554400  0.80963600  0.70977600  1
  O  O84  1  0.10175533  0.52133667  0.79505567  1
  O  O85  1  0.85467000  0.08624800  0.87161100  1
  O  O86  1  0.76924133  0.91221067  0.95689067  1
  O  O87  1  0.86273367  0.29404533  0.73590833  1
  O  O88  1  0.13255367  0.91562133  0.77969333  1
  O  O89  1  0.55026567  0.79922033  0.88697333  1
  O  O90  1  0.90202167  0.52940033  0.93075833  1
  O  O91  1  0.62737867  0.09797833  0.93075833  1
  O  O92  1  0.14296933  0.23075867  0.95689067  1
  O  O93  1  0.91375200  0.76842200  0.87161100  1
  O  O94  1  0.24895467  0.44973433  0.88697333  1
  O  O95  1  0.66666667  0.33333333  0.83333333  1
  O  O96  1  0.08437867  0.21693233  0.77969333  1
  O  O97  1  0.41958133  0.89824467  0.79505567  1
  O  O98  1  0.19036400  0.43590800  0.70977600  1
  O  O99  1  0.70595467  0.56868833  0.73590833  1
  O  O100  1  0.43131167  0.13726633  0.73590833  1
  O  O101  1  0.78306767  0.86744633  0.77969333  1
  O  O102  1  0.20077967  0.75104533  0.88697333  1
  O  O103  1  0.47059967  0.37262133  0.93075833  1
  O  O104  1  0.56409200  0.75445600  0.70977600  1
  O  O105  1  0.47866333  0.58041867  0.79505567  1
  O  O106  1  0.23157800  0.14533000  0.87161100  1
  O  O107  1  0.08778933  0.85703067  0.95689067  1
