# generated using pymatgen
data_LiFeSiO4
_symmetry_space_group_name_H-M   'P 1'
_cell_length_a   5.10460500
_cell_length_b   10.34426400
_cell_length_c   8.42195776
_cell_angle_alpha   90.00000000
_cell_angle_beta   126.66480559
_cell_angle_gamma   90.00000000
_symmetry_Int_Tables_number   1
_chemical_formula_structural   LiFeSiO4
_chemical_formula_sum   'Li4 Fe4 Si4 O16'
_cell_volume   356.71910649
_cell_formula_units_Z   4
loop_
 _symmetry_equiv_pos_site_id
 _symmetry_equiv_pos_as_xyz
  1  'x, y, z'
loop_
 _atom_site_type_symbol
 _atom_site_label
 _atom_site_symmetry_multiplicity
 _atom_site_fract_x
 _atom_site_fract_y
 _atom_site_fract_z
 _atom_site_occupancy
  Li  Li0  1  0.80491600  0.84758600  0.49237800  1
  Li  Li1  1  0.19508400  0.34758600  0.00762200  1
  Li  Li2  1  0.80491600  0.65241400  0.99237800  1
  Li  Li3  1  0.19508400  0.15241400  0.50762200  1
  Fe  Fe4  1  0.30498200  0.83424800  0.99076400  1
  Fe  Fe5  1  0.69501800  0.33424800  0.50923600  1
  Fe  Fe6  1  0.30498200  0.66575200  0.49076400  1
  Fe  Fe7  1  0.69501800  0.16575200  0.00923600  1
  Si  Si8  1  0.04776800  0.59171300  0.73585500  1
  Si  Si9  1  0.95223200  0.09171300  0.76414500  1
  Si  Si10  1  0.04776800  0.90828700  0.23585500  1
  Si  Si11  1  0.95223200  0.40828700  0.26414500  1
  O  O12  1  0.64309600  0.38359500  0.27447300  1
  O  O13  1  0.27753000  0.16433000  0.95642600  1
  O  O14  1  0.86551900  0.16261000  0.56261000  1
  O  O15  1  0.01780200  0.93687700  0.75951300  1
  O  O16  1  0.98219800  0.43687700  0.74048700  1
  O  O17  1  0.13448100  0.66261000  0.93739000  1
  O  O18  1  0.72247000  0.66433000  0.54357400  1
  O  O19  1  0.35690400  0.88359500  0.22552700  1
  O  O20  1  0.64309600  0.11640500  0.77447300  1
  O  O21  1  0.27753000  0.33567000  0.45642600  1
  O  O22  1  0.86551900  0.33739000  0.06261000  1
  O  O23  1  0.01780200  0.56312300  0.25951300  1
  O  O24  1  0.98219800  0.06312300  0.24048700  1
  O  O25  1  0.13448100  0.83739000  0.43739000  1
  O  O26  1  0.72247000  0.83567000  0.04357400  1
  O  O27  1  0.35690400  0.61640500  0.72552700  1
