# generated using pymatgen
data_Nd3SbO7
_symmetry_space_group_name_H-M   'P 1'
_cell_length_a   7.62219000
_cell_length_b   10.97314800
_cell_length_c   7.73949800
_cell_angle_alpha   90.00000000
_cell_angle_beta   90.00000000
_cell_angle_gamma   90.00000000
_symmetry_Int_Tables_number   1
_chemical_formula_structural   Nd3SbO7
_chemical_formula_sum   'Nd12 Sb4 O28'
_cell_volume   647.32711572
_cell_formula_units_Z   4
loop_
 _symmetry_equiv_pos_site_id
 _symmetry_equiv_pos_as_xyz
  1  'x, y, z'
loop_
 _atom_site_type_symbol
 _atom_site_label
 _atom_site_symmetry_multiplicity
 _atom_site_fract_x
 _atom_site_fract_y
 _atom_site_fract_z
 _atom_site_occupancy
  Nd  Nd0  1  0.00000000  0.00000000  0.50000000  1
  Nd  Nd1  1  0.00000000  0.00000000  0.00000000  1
  Nd  Nd2  1  0.29078500  0.22745700  0.25000000  1
  Nd  Nd3  1  0.70921500  0.22745700  0.75000000  1
  Nd  Nd4  1  0.70921500  0.77254300  0.75000000  1
  Nd  Nd5  1  0.29078500  0.77254300  0.25000000  1
  Nd  Nd6  1  0.50000000  0.50000000  0.50000000  1
  Nd  Nd7  1  0.50000000  0.50000000  0.00000000  1
  Nd  Nd8  1  0.79078500  0.72745700  0.25000000  1
  Nd  Nd9  1  0.20921500  0.72745700  0.75000000  1
  Nd  Nd10  1  0.20921500  0.27254300  0.75000000  1
  Nd  Nd11  1  0.79078500  0.27254300  0.25000000  1
  Sb  Sb12  1  0.50000000  0.00000000  0.50000000  1
  Sb  Sb13  1  0.50000000  0.00000000  0.00000000  1
  Sb  Sb14  1  0.00000000  0.50000000  0.50000000  1
  Sb  Sb15  1  0.00000000  0.50000000  0.00000000  1
  O  O16  1  0.31315650  0.12633950  0.53275100  1
  O  O17  1  0.68684350  0.12633950  0.46724900  1
  O  O18  1  0.31315650  0.12633950  0.96724900  1
  O  O19  1  0.68684350  0.12633950  0.03275100  1
  O  O20  1  0.68684350  0.87366050  0.46724900  1
  O  O21  1  0.31315650  0.87366050  0.53275100  1
  O  O22  1  0.68684350  0.87366050  0.03275100  1
  O  O23  1  0.31315650  0.87366050  0.96724900  1
  O  O24  1  0.51989150  0.63194550  0.25000000  1
  O  O25  1  0.48010850  0.63194550  0.75000000  1
  O  O26  1  0.48010850  0.36805450  0.75000000  1
  O  O27  1  0.51989150  0.36805450  0.25000000  1
  O  O28  1  0.42039600  0.00000000  0.25000000  1
  O  O29  1  0.57960400  0.00000000  0.75000000  1
  O  O30  1  0.81315650  0.62633950  0.53275100  1
  O  O31  1  0.18684350  0.62633950  0.46724900  1
  O  O32  1  0.81315650  0.62633950  0.96724900  1
  O  O33  1  0.18684350  0.62633950  0.03275100  1
  O  O34  1  0.18684350  0.37366050  0.46724900  1
  O  O35  1  0.81315650  0.37366050  0.53275100  1
  O  O36  1  0.18684350  0.37366050  0.03275100  1
  O  O37  1  0.81315650  0.37366050  0.96724900  1
  O  O38  1  0.01989150  0.13194550  0.25000000  1
  O  O39  1  0.98010850  0.13194550  0.75000000  1
  O  O40  1  0.98010850  0.86805450  0.75000000  1
  O  O41  1  0.01989150  0.86805450  0.25000000  1
  O  O42  1  0.92039600  0.50000000  0.25000000  1
  O  O43  1  0.07960400  0.50000000  0.75000000  1
