# generated using pymatgen
data_Fe6H12Pb(SO7)4
_symmetry_space_group_name_H-M   'P 1'
_cell_length_a   7.38048438
_cell_length_b   7.38048438
_cell_length_c   34.72156911
_cell_angle_alpha   90.00000000
_cell_angle_beta   90.00000000
_cell_angle_gamma   120.00000000
_symmetry_Int_Tables_number   1
_chemical_formula_structural   Fe6H12Pb(SO7)4
_chemical_formula_sum   'Fe18 H36 Pb3 S12 O84'
_cell_volume   1637.94647352
_cell_formula_units_Z   3
loop_
 _symmetry_equiv_pos_site_id
 _symmetry_equiv_pos_as_xyz
  1  'x, y, z'
loop_
 _atom_site_type_symbol
 _atom_site_label
 _atom_site_symmetry_multiplicity
 _atom_site_fract_x
 _atom_site_fract_y
 _atom_site_fract_z
 _atom_site_occupancy
  Fe  Fe0  1  0.16473467  0.83526533  0.08278733  1
  Fe  Fe1  1  0.16473467  0.32946933  0.08278733  1
  Fe  Fe2  1  0.67053067  0.83526533  0.08278733  1
  Fe  Fe3  1  0.99613600  0.49806800  0.25054600  1
  Fe  Fe4  1  0.50193200  0.00386400  0.25054600  1
  Fe  Fe5  1  0.50193200  0.49806800  0.25054600  1
  Fe  Fe6  1  0.83140133  0.16859867  0.41612067  1
  Fe  Fe7  1  0.83140133  0.66280267  0.41612067  1
  Fe  Fe8  1  0.33719733  0.16859867  0.41612067  1
  Fe  Fe9  1  0.66280267  0.83140133  0.58387933  1
  Fe  Fe10  1  0.16859867  0.33719733  0.58387933  1
  Fe  Fe11  1  0.16859867  0.83140133  0.58387933  1
  Fe  Fe12  1  0.49806800  0.50193200  0.74945400  1
  Fe  Fe13  1  0.49806800  0.99613600  0.74945400  1
  Fe  Fe14  1  0.00386400  0.50193200  0.74945400  1
  Fe  Fe15  1  0.32946933  0.16473467  0.91721267  1
  Fe  Fe16  1  0.83526533  0.67053067  0.91721267  1
  Fe  Fe17  1  0.83526533  0.16473467  0.91721267  1
  H  H18  1  0.53249267  0.06498533  0.10971133  1
  H  H19  1  0.53249267  0.46750733  0.10971133  1
  H  H20  1  0.93501467  0.46750733  0.10971133  1
  H  H21  1  0.37305067  0.18652533  0.04953833  1
  H  H22  1  0.81347467  0.62694933  0.04953833  1
  H  H23  1  0.81347467  0.18652533  0.04953833  1
  H  H24  1  0.85319200  0.14680800  0.28379500  1
  H  H25  1  0.85319200  0.70638400  0.28379500  1
  H  H26  1  0.29361600  0.14680800  0.28379500  1
  H  H27  1  0.73165200  0.86582600  0.22362200  1
  H  H28  1  0.13417400  0.86582600  0.22362200  1
  H  H29  1  0.13417400  0.26834800  0.22362200  1
  H  H30  1  0.19915933  0.39831867  0.44304467  1
  H  H31  1  0.19915933  0.80084067  0.44304467  1
  H  H32  1  0.60168133  0.80084067  0.44304467  1
  H  H33  1  0.03971733  0.51985867  0.38287167  1
  H  H34  1  0.48014133  0.96028267  0.38287167  1
  H  H35  1  0.48014133  0.51985867  0.38287167  1
  H  H36  1  0.51985867  0.48014133  0.61712833  1
  H  H37  1  0.51985867  0.03971733  0.61712833  1
  H  H38  1  0.96028267  0.48014133  0.61712833  1
  H  H39  1  0.39831867  0.19915933  0.55695533  1
  H  H40  1  0.80084067  0.19915933  0.55695533  1
  H  H41  1  0.80084067  0.60168133  0.55695533  1
  H  H42  1  0.86582600  0.73165200  0.77637800  1
  H  H43  1  0.86582600  0.13417400  0.77637800  1
  H  H44  1  0.26834800  0.13417400  0.77637800  1
  H  H45  1  0.70638400  0.85319200  0.71620500  1
  H  H46  1  0.14680800  0.29361600  0.71620500  1
  H  H47  1  0.14680800  0.85319200  0.71620500  1
  H  H48  1  0.18652533  0.81347467  0.95046167  1
  H  H49  1  0.18652533  0.37305067  0.95046167  1
  H  H50  1  0.62694933  0.81347467  0.95046167  1
  H  H51  1  0.06498533  0.53249267  0.89028867  1
  H  H52  1  0.46750733  0.53249267  0.89028867  1
  H  H53  1  0.46750733  0.93501467  0.89028867  1
  Pb  Pb54  1  0.33333333  0.66666667  0.16666667  1
  Pb  Pb55  1  1.00000000  1.00000000  0.50000000  1
  Pb  Pb56  1  0.66666667  0.33333333  0.83333333  1
  S  S57  1  0.33333333  0.66666667  0.31919467  1
  S  S58  1  0.00000000  0.00000000  0.15528400  1
  S  S59  1  0.66666667  0.33333333  0.17804933  1
  S  S60  1  0.33333333  0.66666667  0.01413867  1
  S  S61  1  0.00000000  0.00000000  0.65252800  1
  S  S62  1  0.66666667  0.33333333  0.48861733  1
  S  S63  1  0.33333333  0.66666667  0.51138267  1
  S  S64  1  0.00000000  0.00000000  0.34747200  1
  S  S65  1  0.66666667  0.33333333  0.98586133  1
  S  S66  1  0.33333333  0.66666667  0.82195067  1
  S  S67  1  0.00000000  0.00000000  0.84471600  1
  S  S68  1  0.66666667  0.33333333  0.68080533  1
  O  O69  1  0.66666667  0.33333333  0.02822333  1
  O  O70  1  0.55642733  0.44357267  0.19281767  1
  O  O71  1  0.55642733  0.11285467  0.19281767  1
  O  O72  1  0.88714533  0.44357267  0.19281767  1
  O  O73  1  0.45786067  0.91572133  0.10224933  1
  O  O74  1  0.45786067  0.54213933  0.10224933  1
  O  O75  1  0.08427867  0.54213933  0.10224933  1
  O  O76  1  0.00000000  0.00000000  0.19776700  1
  O  O77  1  0.26551867  0.13275933  0.06985733  1
  O  O78  1  0.86724067  0.13275933  0.06985733  1
  O  O79  1  0.86724067  0.73448133  0.06985733  1
  O  O80  1  0.22290400  0.77709600  0.02847600  1
  O  O81  1  0.22290400  0.44580800  0.02847600  1
  O  O82  1  0.11247467  0.55623733  0.30485733  1
  O  O83  1  0.55419200  0.77709600  0.02847600  1
  O  O84  1  0.44376267  0.88752533  0.30485733  1
  O  O85  1  0.44376267  0.55623733  0.30485733  1
  O  O86  1  0.79942600  0.59885200  0.26347600  1
  O  O87  1  0.79942600  0.20057400  0.26347600  1
  O  O88  1  0.40114800  0.20057400  0.26347600  1
  O  O89  1  0.66666667  0.33333333  0.13556633  1
  O  O90  1  0.58238800  0.79119400  0.23108400  1
  O  O91  1  0.20880600  0.79119400  0.23108400  1
  O  O92  1  0.20880600  0.41761200  0.23108400  1
  O  O93  1  0.77952133  0.88976067  0.14051567  1
  O  O94  1  0.11023933  0.22047867  0.14051567  1
  O  O95  1  0.11023933  0.88976067  0.14051567  1
  O  O96  1  0.00000000  0.00000000  0.30511000  1
  O  O97  1  0.33333333  0.66666667  0.36155667  1
  O  O98  1  0.22309400  0.77690600  0.52615100  1
  O  O99  1  0.22309400  0.44618800  0.52615100  1
  O  O100  1  0.55381200  0.77690600  0.52615100  1
  O  O101  1  0.12452733  0.24905467  0.43558267  1
  O  O102  1  0.12452733  0.87547267  0.43558267  1
  O  O103  1  0.75094533  0.87547267  0.43558267  1
  O  O104  1  0.66666667  0.33333333  0.53110033  1
  O  O105  1  0.93218533  0.46609267  0.40319067  1
  O  O106  1  0.53390733  0.46609267  0.40319067  1
  O  O107  1  0.53390733  0.06781467  0.40319067  1
  O  O108  1  0.88957067  0.11042933  0.36180933  1
  O  O109  1  0.88957067  0.77914133  0.36180933  1
  O  O110  1  0.77914133  0.88957067  0.63819067  1
  O  O111  1  0.22085867  0.11042933  0.36180933  1
  O  O112  1  0.11042933  0.22085867  0.63819067  1
  O  O113  1  0.11042933  0.88957067  0.63819067  1
  O  O114  1  0.46609267  0.93218533  0.59680933  1
  O  O115  1  0.46609267  0.53390733  0.59680933  1
  O  O116  1  0.06781467  0.53390733  0.59680933  1
  O  O117  1  0.33333333  0.66666667  0.46889967  1
  O  O118  1  0.24905467  0.12452733  0.56441733  1
  O  O119  1  0.87547267  0.12452733  0.56441733  1
  O  O120  1  0.87547267  0.75094533  0.56441733  1
  O  O121  1  0.44618800  0.22309400  0.47384900  1
  O  O122  1  0.77690600  0.55381200  0.47384900  1
  O  O123  1  0.77690600  0.22309400  0.47384900  1
  O  O124  1  0.66666667  0.33333333  0.63844333  1
  O  O125  1  0.00000000  0.00000000  0.69489000  1
  O  O126  1  0.88976067  0.11023933  0.85948433  1
  O  O127  1  0.88976067  0.77952133  0.85948433  1
  O  O128  1  0.22047867  0.11023933  0.85948433  1
  O  O129  1  0.79119400  0.58238800  0.76891600  1
  O  O130  1  0.79119400  0.20880600  0.76891600  1
  O  O131  1  0.41761200  0.20880600  0.76891600  1
  O  O132  1  0.33333333  0.66666667  0.86443367  1
  O  O133  1  0.59885200  0.79942600  0.73652400  1
  O  O134  1  0.20057400  0.79942600  0.73652400  1
  O  O135  1  0.20057400  0.40114800  0.73652400  1
  O  O136  1  0.55623733  0.44376267  0.69514267  1
  O  O137  1  0.55623733  0.11247467  0.69514267  1
  O  O138  1  0.44580800  0.22290400  0.97152400  1
  O  O139  1  0.88752533  0.44376267  0.69514267  1
  O  O140  1  0.77709600  0.55419200  0.97152400  1
  O  O141  1  0.77709600  0.22290400  0.97152400  1
  O  O142  1  0.13275933  0.26551867  0.93014267  1
  O  O143  1  0.13275933  0.86724067  0.93014267  1
  O  O144  1  0.73448133  0.86724067  0.93014267  1
  O  O145  1  0.00000000  0.00000000  0.80223300  1
  O  O146  1  0.91572133  0.45786067  0.89775067  1
  O  O147  1  0.54213933  0.45786067  0.89775067  1
  O  O148  1  0.54213933  0.08427867  0.89775067  1
  O  O149  1  0.11285467  0.55642733  0.80718233  1
  O  O150  1  0.44357267  0.88714533  0.80718233  1
  O  O151  1  0.44357267  0.55642733  0.80718233  1
  O  O152  1  0.33333333  0.66666667  0.97177667  1
