# generated using pymatgen
data_RbFe3O5
_symmetry_space_group_name_H-M   'P 1'
_cell_length_a   3.11323700
_cell_length_b   9.57926300
_cell_length_c   15.53296057
_cell_angle_alpha   90.00000000
_cell_angle_beta   90.00000000
_cell_angle_gamma   90.00000000
_symmetry_Int_Tables_number   1
_chemical_formula_structural   RbFe3O5
_chemical_formula_sum   'Rb4 Fe12 O20'
_cell_volume   463.23196531
_cell_formula_units_Z   4
loop_
 _symmetry_equiv_pos_site_id
 _symmetry_equiv_pos_as_xyz
  1  'x, y, z'
loop_
 _atom_site_type_symbol
 _atom_site_label
 _atom_site_symmetry_multiplicity
 _atom_site_fract_x
 _atom_site_fract_y
 _atom_site_fract_z
 _atom_site_occupancy
  Rb  Rb0  1  0.00000000  0.77898400  0.62205700  1
  Rb  Rb1  1  0.50000000  0.22101600  0.12205700  1
  Rb  Rb2  1  0.00000000  0.28075900  0.87950600  1
  Rb  Rb3  1  0.50000000  0.71924100  0.37950600  1
  Fe  Fe4  1  0.00000000  0.85863300  0.16443900  1
  Fe  Fe5  1  0.50000000  0.89290300  0.98972400  1
  Fe  Fe6  1  0.00000000  0.92773800  0.82008300  1
  Fe  Fe7  1  0.50000000  0.07226200  0.32008300  1
  Fe  Fe8  1  0.00000000  0.10709700  0.48972400  1
  Fe  Fe9  1  0.50000000  0.14136700  0.66443900  1
  Fe  Fe10  1  0.00000000  0.35978400  0.33578200  1
  Fe  Fe11  1  0.50000000  0.39542500  0.51044200  1
  Fe  Fe12  1  0.00000000  0.42887000  0.68012700  1
  Fe  Fe13  1  0.50000000  0.57113000  0.18012700  1
  Fe  Fe14  1  0.00000000  0.60457500  0.01044200  1
  Fe  Fe15  1  0.50000000  0.64021600  0.83578200  1
  O  O16  1  0.00000000  0.76787800  0.92470300  1
  O  O17  1  0.50000000  0.81342200  0.77305500  1
  O  O18  1  0.50000000  0.94345500  0.21965200  1
  O  O19  1  0.00000000  0.97142500  0.05560300  1
  O  O20  1  0.00000000  0.98061600  0.38934600  1
  O  O21  1  0.50000000  0.01938400  0.88934600  1
  O  O22  1  0.50000000  0.02857500  0.55560300  1
  O  O23  1  0.00000000  0.05654500  0.71965200  1
  O  O24  1  0.00000000  0.18657800  0.27305500  1
  O  O25  1  0.50000000  0.23212200  0.42470300  1
  O  O26  1  0.00000000  0.27214000  0.57707400  1
  O  O27  1  0.50000000  0.31462000  0.72853200  1
  O  O28  1  0.50000000  0.44303700  0.27892200  1
  O  O29  1  0.00000000  0.47448400  0.44454700  1
  O  O30  1  0.00000000  0.48407500  0.10684700  1
  O  O31  1  0.50000000  0.51592500  0.60684700  1
  O  O32  1  0.50000000  0.52551600  0.94454700  1
  O  O33  1  0.00000000  0.55696300  0.77892200  1
  O  O34  1  0.00000000  0.68538000  0.22853200  1
  O  O35  1  0.50000000  0.72786000  0.07707400  1
