# generated using pymatgen
data_TiV3(PO4)6
_symmetry_space_group_name_H-M   'P 1'
_cell_length_a   8.55609210
_cell_length_b   8.55609210
_cell_length_c   21.68238028
_cell_angle_alpha   90.00000000
_cell_angle_beta   90.00000000
_cell_angle_gamma   120.00000000
_symmetry_Int_Tables_number   1
_chemical_formula_structural   TiV3(PO4)6
_chemical_formula_sum   'Ti3 V9 P18 O72'
_cell_volume   1374.63845851
_cell_formula_units_Z   3
loop_
 _symmetry_equiv_pos_site_id
 _symmetry_equiv_pos_as_xyz
  1  'x, y, z'
loop_
 _atom_site_type_symbol
 _atom_site_label
 _atom_site_symmetry_multiplicity
 _atom_site_fract_x
 _atom_site_fract_y
 _atom_site_fract_z
 _atom_site_occupancy
  Ti  Ti0  1  0.66666667  0.33333333  0.19354133  1
  Ti  Ti1  1  0.33333333  0.66666667  0.52687467  1
  Ti  Ti2  1  0.00000000  0.00000000  0.86020800  1
  V  V3  1  0.00000000  0.00000000  0.13977800  1
  V  V4  1  0.33333333  0.66666667  0.02518167  1
  V  V5  1  0.33333333  0.66666667  0.30702867  1
  V  V6  1  0.66666667  0.33333333  0.47311133  1
  V  V7  1  0.00000000  0.00000000  0.35851500  1
  V  V8  1  0.00000000  0.00000000  0.64036200  1
  V  V9  1  0.33333333  0.66666667  0.80644467  1
  V  V10  1  0.66666667  0.33333333  0.69184833  1
  V  V11  1  0.66666667  0.33333333  0.97369533  1
  P  P12  1  0.66590567  0.61628533  0.08320533  1
  P  P13  1  0.95037967  0.33409433  0.08320533  1
  P  P14  1  0.38371467  0.04962033  0.08320533  1
  P  P15  1  0.28003133  0.28226467  0.25024967  1
  P  P16  1  0.71773533  0.99776667  0.25024967  1
  P  P17  1  0.00223333  0.71996867  0.25024967  1
  P  P18  1  0.33257233  0.94961867  0.41653867  1
  P  P19  1  0.61704633  0.66742767  0.41653867  1
  P  P20  1  0.05038133  0.38295367  0.41653867  1
  P  P21  1  0.94669800  0.61559800  0.58358300  1
  P  P22  1  0.38440200  0.33110000  0.58358300  1
  P  P23  1  0.66890000  0.05330200  0.58358300  1
  P  P24  1  0.99923900  0.28295200  0.74987200  1
  P  P25  1  0.28371300  0.00076100  0.74987200  1
  P  P26  1  0.71704800  0.71628700  0.74987200  1
  P  P27  1  0.61336467  0.94893133  0.91691633  1
  P  P28  1  0.05106867  0.66443333  0.91691633  1
  P  P29  1  0.33556667  0.38663533  0.91691633  1
  O  O30  1  0.97717833  0.80580367  0.30802167  1
  O  O31  1  0.19419633  0.17137467  0.30802167  1
  O  O32  1  0.83791633  0.80693967  0.09079967  1
  O  O33  1  0.82862533  0.02282167  0.30802167  1
  O  O34  1  0.50320700  0.64265700  0.07563100  1
  O  O35  1  0.63836167  0.50358833  0.14076833  1
  O  O36  1  0.96902333  0.16208367  0.09079967  1
  O  O37  1  0.13945000  0.49679300  0.07563100  1
  O  O38  1  0.35734300  0.86055000  0.07563100  1
  O  O39  1  0.16371367  0.19672833  0.19194833  1
  O  O40  1  0.46821500  0.30547400  0.24336600  1
  O  O41  1  0.80327167  0.96698533  0.19194833  1
  O  O42  1  0.86522667  0.36163833  0.14076833  1
  O  O43  1  0.19306033  0.03097667  0.09079967  1
  O  O44  1  0.49641167  0.13477333  0.14076833  1
  O  O45  1  0.30024800  0.47315600  0.25780600  1
  O  O46  1  0.52684400  0.82709200  0.25780600  1
  O  O47  1  0.69452600  0.16274100  0.24336600  1
  O  O48  1  0.03301467  0.83628633  0.19194833  1
  O  O49  1  0.17290800  0.69975200  0.25780600  1
  O  O50  1  0.83174967  0.30188133  0.02524833  1
  O  O51  1  0.83725900  0.53178500  0.24336600  1
  O  O52  1  0.47013167  0.16825033  0.02524833  1
  O  O53  1  0.69811867  0.52986833  0.02524833  1
  O  O54  1  0.64384500  0.13913700  0.64135500  1
  O  O55  1  0.86086300  0.50470800  0.64135500  1
  O  O56  1  0.50458300  0.14027300  0.42413300  1
  O  O57  1  0.49529200  0.35615500  0.64135500  1
  O  O58  1  0.16987367  0.97599033  0.40896433  1
  O  O59  1  0.30502833  0.83692167  0.47410167  1
  O  O60  1  0.63569000  0.49541700  0.42413300  1
  O  O61  1  0.80611667  0.83012633  0.40896433  1
  O  O62  1  0.02400967  0.19388333  0.40896433  1
  O  O63  1  0.83038033  0.53006167  0.52528167  1
  O  O64  1  0.13488167  0.63880733  0.57669933  1
  O  O65  1  0.46993833  0.30031867  0.52528167  1
  O  O66  1  0.53189333  0.69497167  0.47410167  1
  O  O67  1  0.85972700  0.36431000  0.42413300  1
  O  O68  1  0.16307833  0.46810667  0.47410167  1
  O  O69  1  0.96691467  0.80648933  0.59113933  1
  O  O70  1  0.19351067  0.16042533  0.59113933  1
  O  O71  1  0.36119267  0.49607433  0.57669933  1
  O  O72  1  0.69968133  0.16961967  0.52528167  1
  O  O73  1  0.83957467  0.03308533  0.59113933  1
  O  O74  1  0.49841633  0.63521467  0.35858167  1
  O  O75  1  0.50392567  0.86511833  0.57669933  1
  O  O76  1  0.13679833  0.50158367  0.35858167  1
  O  O77  1  0.36478533  0.86320167  0.35858167  1
  O  O78  1  0.31051167  0.47247033  0.97468833  1
  O  O79  1  0.52752967  0.83804133  0.97468833  1
  O  O80  1  0.17124967  0.47360633  0.75746633  1
  O  O81  1  0.16195867  0.68948833  0.97468833  1
  O  O82  1  0.83654033  0.30932367  0.74229767  1
  O  O83  1  0.97169500  0.17025500  0.80743500  1
  O  O84  1  0.30235667  0.82875033  0.75746633  1
  O  O85  1  0.47278333  0.16345967  0.74229767  1
  O  O86  1  0.69067633  0.52721667  0.74229767  1
  O  O87  1  0.49704700  0.86339500  0.85861500  1
  O  O88  1  0.80154833  0.97214067  0.91003267  1
  O  O89  1  0.13660500  0.63365200  0.85861500  1
  O  O90  1  0.19856000  0.02830500  0.80743500  1
  O  O91  1  0.52639367  0.69764333  0.75746633  1
  O  O92  1  0.82974500  0.80144000  0.80743500  1
  O  O93  1  0.63358133  0.13982267  0.92447267  1
  O  O94  1  0.86017733  0.49375867  0.92447267  1
  O  O95  1  0.02785933  0.82940767  0.91003267  1
  O  O96  1  0.36634800  0.50295300  0.85861500  1
  O  O97  1  0.50624133  0.36641867  0.92447267  1
  O  O98  1  0.16508300  0.96854800  0.69191500  1
  O  O99  1  0.17059233  0.19845167  0.91003267  1
  O  O100  1  0.80346500  0.83491700  0.69191500  1
  O  O101  1  0.03145200  0.19653500  0.69191500  1
