# generated using pymatgen
data_K2P3H5O11
_symmetry_space_group_name_H-M   'P 1'
_cell_length_a   31.62663400
_cell_length_b   7.49186000
_cell_length_c   9.37350331
_cell_angle_alpha   90.00000000
_cell_angle_beta   100.14284574
_cell_angle_gamma   90.00000000
_symmetry_Int_Tables_number   1
_chemical_formula_structural   K2P3H5O11
_chemical_formula_sum   'K16 P24 H40 O88'
_cell_volume   2186.26957642
_cell_formula_units_Z   8
loop_
 _symmetry_equiv_pos_site_id
 _symmetry_equiv_pos_as_xyz
  1  'x, y, z'
loop_
 _atom_site_type_symbol
 _atom_site_label
 _atom_site_symmetry_multiplicity
 _atom_site_fract_x
 _atom_site_fract_y
 _atom_site_fract_z
 _atom_site_occupancy
  K  K0  1  0.32172800  0.46791700  0.12147800  1
  K  K1  1  0.17827200  0.96791700  0.37852200  1
  K  K2  1  0.17827200  0.03208300  0.87852200  1
  K  K3  1  0.32172800  0.53208300  0.62147800  1
  K  K4  1  0.00000000  0.50063800  0.75000000  1
  K  K5  1  0.00000000  0.49936200  0.25000000  1
  K  K6  1  0.00000000  0.00000000  0.00000000  1
  K  K7  1  0.00000000  0.00000000  0.50000000  1
  K  K8  1  0.82172800  0.96791700  0.12147800  1
  K  K9  1  0.67827200  0.46791700  0.37852200  1
  K  K10  1  0.67827200  0.53208300  0.87852200  1
  K  K11  1  0.82172800  0.03208300  0.62147800  1
  K  K12  1  0.50000000  0.00063800  0.75000000  1
  K  K13  1  0.50000000  0.99936200  0.25000000  1
  K  K14  1  0.50000000  0.50000000  0.00000000  1
  K  K15  1  0.50000000  0.50000000  0.50000000  1
  P  P16  1  0.22602700  0.54602800  0.79694100  1
  P  P17  1  0.27397300  0.04602800  0.70305900  1
  P  P18  1  0.27397300  0.95397200  0.20305900  1
  P  P19  1  0.22602700  0.45397200  0.29694100  1
  P  P20  1  0.40533450  0.18648850  0.94331500  1
  P  P21  1  0.09466550  0.68648850  0.55668500  1
  P  P22  1  0.09466550  0.31351150  0.05668500  1
  P  P23  1  0.40533450  0.81351150  0.44331500  1
  P  P24  1  0.41338750  0.79109150  0.94757100  1
  P  P25  1  0.08661250  0.29109150  0.55242900  1
  P  P26  1  0.08661250  0.70890850  0.05242900  1
  P  P27  1  0.41338750  0.20890850  0.44757100  1
  P  P28  1  0.72602700  0.04602800  0.79694100  1
  P  P29  1  0.77397300  0.54602800  0.70305900  1
  P  P30  1  0.77397300  0.45397200  0.20305900  1
  P  P31  1  0.72602700  0.95397200  0.29694100  1
  P  P32  1  0.90533450  0.68648850  0.94331500  1
  P  P33  1  0.59466550  0.18648850  0.55668500  1
  P  P34  1  0.59466550  0.81351150  0.05668500  1
  P  P35  1  0.90533450  0.31351150  0.44331500  1
  P  P36  1  0.91338750  0.29109150  0.94757100  1
  P  P37  1  0.58661250  0.79109150  0.55242900  1
  P  P38  1  0.58661250  0.20890850  0.05242900  1
  P  P39  1  0.91338750  0.70890850  0.44757100  1
  H  H40  1  0.27452050  0.79988850  0.85427600  1
  H  H41  1  0.22547950  0.29988850  0.64572400  1
  H  H42  1  0.22547950  0.70011150  0.14572400  1
  H  H43  1  0.27452050  0.20011150  0.35427600  1
  H  H44  1  0.28440400  0.05815300  0.99979200  1
  H  H45  1  0.21559600  0.55815300  0.50020800  1
  H  H46  1  0.21559600  0.44184700  0.00020800  1
  H  H47  1  0.28440400  0.94184700  0.49979200  1
  H  H48  1  0.16287550  0.73602650  0.66927600  1
  H  H49  1  0.33712450  0.23602650  0.83072400  1
  H  H50  1  0.33712450  0.76397350  0.33072400  1
  H  H51  1  0.16287550  0.26397350  0.16927600  1
  H  H52  1  0.40871250  0.27510650  0.67308200  1
  H  H53  1  0.09128750  0.77510650  0.82691800  1
  H  H54  1  0.09128750  0.22489350  0.32691800  1
  H  H55  1  0.40871250  0.72489350  0.17308200  1
  H  H56  1  0.09046100  0.22727000  0.78682300  1
  H  H57  1  0.40953900  0.72727000  0.71317700  1
  H  H58  1  0.40953900  0.27273000  0.21317700  1
  H  H59  1  0.09046100  0.77273000  0.28682300  1
  H  H60  1  0.77452050  0.29988850  0.85427600  1
  H  H61  1  0.72547950  0.79988850  0.64572400  1
  H  H62  1  0.72547950  0.20011150  0.14572400  1
  H  H63  1  0.77452050  0.70011150  0.35427600  1
  H  H64  1  0.78440400  0.55815300  0.99979200  1
  H  H65  1  0.71559600  0.05815300  0.50020800  1
  H  H66  1  0.71559600  0.94184700  0.00020800  1
  H  H67  1  0.78440400  0.44184700  0.49979200  1
  H  H68  1  0.66287550  0.23602650  0.66927600  1
  H  H69  1  0.83712450  0.73602650  0.83072400  1
  H  H70  1  0.83712450  0.26397350  0.33072400  1
  H  H71  1  0.66287550  0.76397350  0.16927600  1
  H  H72  1  0.90871250  0.77510650  0.67308200  1
  H  H73  1  0.59128750  0.27510650  0.82691800  1
  H  H74  1  0.59128750  0.72489350  0.32691800  1
  H  H75  1  0.90871250  0.22489350  0.17308200  1
  H  H76  1  0.59046100  0.72727000  0.78682300  1
  H  H77  1  0.90953900  0.22727000  0.71317700  1
  H  H78  1  0.90953900  0.77273000  0.21317700  1
  H  H79  1  0.59046100  0.27273000  0.28682300  1
  O  O80  1  0.19318600  0.69641000  0.78129800  1
  O  O81  1  0.30681400  0.19641000  0.71870200  1
  O  O82  1  0.30681400  0.80359000  0.21870200  1
  O  O83  1  0.19318600  0.30359000  0.28129800  1
  O  O84  1  0.27163100  0.61523000  0.85352400  1
  O  O85  1  0.22836900  0.11523000  0.64647600  1
  O  O86  1  0.22836900  0.88477000  0.14647600  1
  O  O87  1  0.27163100  0.38477000  0.35352400  1
  O  O88  1  0.27671400  0.94589200  0.85264900  1
  O  O89  1  0.22328600  0.44589200  0.64735100  1
  O  O90  1  0.22328600  0.55410800  0.14735100  1
  O  O91  1  0.27671400  0.05410800  0.35264900  1
  O  O92  1  0.21405700  0.39135100  0.89931400  1
  O  O93  1  0.28594300  0.89135100  0.60068600  1
  O  O94  1  0.28594300  0.10864900  0.10068600  1
  O  O95  1  0.21405700  0.60864900  0.39931400  1
  O  O96  1  0.36143500  0.28609400  0.92033300  1
  O  O97  1  0.13856500  0.78609400  0.57966700  1
  O  O98  1  0.13856500  0.21390600  0.07966700  1
  O  O99  1  0.36143500  0.71390600  0.42033300  1
  O  O100  1  0.43023800  0.21400500  0.81986200  1
  O  O101  1  0.06976200  0.71400500  0.68013800  1
  O  O102  1  0.06976200  0.28599500  0.18013800  1
  O  O103  1  0.43023800  0.78599500  0.31986200  1
  O  O104  1  0.43119950  0.22972550  0.09262000  1
  O  O105  1  0.06880050  0.72972550  0.40738000  1
  O  O106  1  0.06880050  0.27027450  0.90738000  1
  O  O107  1  0.43119950  0.77027450  0.59262000  1
  O  O108  1  0.38866300  0.97858900  0.94109400  1
  O  O109  1  0.11133700  0.47858900  0.55890600  1
  O  O110  1  0.11133700  0.52141100  0.05890600  1
  O  O111  1  0.38866300  0.02141100  0.44109400  1
  O  O112  1  0.46129200  0.81458800  0.97438200  1
  O  O113  1  0.03870800  0.31458800  0.52561800  1
  O  O114  1  0.03870800  0.68541200  0.02561800  1
  O  O115  1  0.46129200  0.18541200  0.47438200  1
  O  O116  1  0.39607350  0.68099150  0.06749900  1
  O  O117  1  0.10392650  0.18099150  0.43250100  1
  O  O118  1  0.10392650  0.81900850  0.93250100  1
  O  O119  1  0.39607350  0.31900850  0.56749900  1
  O  O120  1  0.39502150  0.69108250  0.80321400  1
  O  O121  1  0.10497850  0.19108250  0.69678600  1
  O  O122  1  0.10497850  0.80891750  0.19678600  1
  O  O123  1  0.39502150  0.30891750  0.30321400  1
  O  O124  1  0.69318600  0.19641000  0.78129800  1
  O  O125  1  0.80681400  0.69641000  0.71870200  1
  O  O126  1  0.80681400  0.30359000  0.21870200  1
  O  O127  1  0.69318600  0.80359000  0.28129800  1
  O  O128  1  0.77163100  0.11523000  0.85352400  1
  O  O129  1  0.72836900  0.61523000  0.64647600  1
  O  O130  1  0.72836900  0.38477000  0.14647600  1
  O  O131  1  0.77163100  0.88477000  0.35352400  1
  O  O132  1  0.77671400  0.44589200  0.85264900  1
  O  O133  1  0.72328600  0.94589200  0.64735100  1
  O  O134  1  0.72328600  0.05410800  0.14735100  1
  O  O135  1  0.77671400  0.55410800  0.35264900  1
  O  O136  1  0.71405700  0.89135100  0.89931400  1
  O  O137  1  0.78594300  0.39135100  0.60068600  1
  O  O138  1  0.78594300  0.60864900  0.10068600  1
  O  O139  1  0.71405700  0.10864900  0.39931400  1
  O  O140  1  0.86143500  0.78609400  0.92033300  1
  O  O141  1  0.63856500  0.28609400  0.57966700  1
  O  O142  1  0.63856500  0.71390600  0.07966700  1
  O  O143  1  0.86143500  0.21390600  0.42033300  1
  O  O144  1  0.93023800  0.71400500  0.81986200  1
  O  O145  1  0.56976200  0.21400500  0.68013800  1
  O  O146  1  0.56976200  0.78599500  0.18013800  1
  O  O147  1  0.93023800  0.28599500  0.31986200  1
  O  O148  1  0.93119950  0.72972550  0.09262000  1
  O  O149  1  0.56880050  0.22972550  0.40738000  1
  O  O150  1  0.56880050  0.77027450  0.90738000  1
  O  O151  1  0.93119950  0.27027450  0.59262000  1
  O  O152  1  0.88866300  0.47858900  0.94109400  1
  O  O153  1  0.61133700  0.97858900  0.55890600  1
  O  O154  1  0.61133700  0.02141100  0.05890600  1
  O  O155  1  0.88866300  0.52141100  0.44109400  1
  O  O156  1  0.96129200  0.31458800  0.97438200  1
  O  O157  1  0.53870800  0.81458800  0.52561800  1
  O  O158  1  0.53870800  0.18541200  0.02561800  1
  O  O159  1  0.96129200  0.68541200  0.47438200  1
  O  O160  1  0.89607350  0.18099150  0.06749900  1
  O  O161  1  0.60392650  0.68099150  0.43250100  1
  O  O162  1  0.60392650  0.31900850  0.93250100  1
  O  O163  1  0.89607350  0.81900850  0.56749900  1
  O  O164  1  0.89502150  0.19108250  0.80321400  1
  O  O165  1  0.60497850  0.69108250  0.69678600  1
  O  O166  1  0.60497850  0.30891750  0.19678600  1
  O  O167  1  0.89502150  0.80891750  0.30321400  1
