# generated using pymatgen
data_Rb2H8O5
_symmetry_space_group_name_H-M   'P 1'
_cell_length_a   15.03473000
_cell_length_b   7.51477400
_cell_length_c   14.99947436
_cell_angle_alpha   90.00000000
_cell_angle_beta   119.48184252
_cell_angle_gamma   90.00000000
_symmetry_Int_Tables_number   1
_chemical_formula_structural   Rb2H8O5
_chemical_formula_sum   'Rb16 H64 O40'
_cell_volume   1475.23841361
_cell_formula_units_Z   8
loop_
 _symmetry_equiv_pos_site_id
 _symmetry_equiv_pos_as_xyz
  1  'x, y, z'
loop_
 _atom_site_type_symbol
 _atom_site_label
 _atom_site_symmetry_multiplicity
 _atom_site_fract_x
 _atom_site_fract_y
 _atom_site_fract_z
 _atom_site_occupancy
  Rb  Rb0  1  0.89539800  0.52022200  0.94511100  1
  Rb  Rb1  1  0.87361900  0.99494900  0.94151100  1
  Rb  Rb2  1  0.61368400  0.50257800  0.80319000  1
  Rb  Rb3  1  0.39539800  0.97977800  0.44511100  1
  Rb  Rb4  1  0.64348600  0.51707100  0.55875500  1
  Rb  Rb5  1  0.37361900  0.50505100  0.44151100  1
  Rb  Rb6  1  0.61368400  0.49742200  0.30319000  1
  Rb  Rb7  1  0.14348600  0.98292900  0.05875500  1
  Rb  Rb8  1  0.39539800  0.02022200  0.94511100  1
  Rb  Rb9  1  0.37361900  0.49494900  0.94151100  1
  Rb  Rb10  1  0.11368400  0.00257800  0.80319000  1
  Rb  Rb11  1  0.89539800  0.47977800  0.44511100  1
  Rb  Rb12  1  0.14348600  0.01707100  0.55875500  1
  Rb  Rb13  1  0.87361900  0.00505100  0.44151100  1
  Rb  Rb14  1  0.11368400  0.99742200  0.30319000  1
  Rb  Rb15  1  0.64348600  0.48292900  0.05875500  1
  H  H16  1  0.69849850  0.85739950  0.96607700  1
  H  H17  1  0.68764400  0.13013000  0.94108600  1
  H  H18  1  0.54228550  0.84720250  0.88838600  1
  H  H19  1  0.56213200  0.14635800  0.88251800  1
  H  H20  1  0.45415250  0.71517750  0.80937700  1
  H  H21  1  0.45528350  0.28596050  0.79412500  1
  H  H22  1  0.41928350  0.23534850  0.59715700  1
  H  H23  1  0.42959850  0.70323450  0.66826900  1
  H  H24  1  0.29256250  0.30959350  0.58127600  1
  H  H25  1  0.29267400  0.70748400  0.57245300  1
  H  H26  1  0.53861700  0.85895900  0.67580100  1
  H  H27  1  0.53214400  0.14413600  0.66714400  1
  H  H28  1  0.71533150  0.17245050  0.73460600  1
  H  H29  1  0.66844850  0.78652850  0.70474000  1
  H  H30  1  0.79124800  0.79983500  0.73490400  1
  H  H31  1  0.80601300  0.25052200  0.72269000  1
  H  H32  1  0.69849850  0.14260050  0.46607700  1
  H  H33  1  0.68764400  0.86987000  0.44108600  1
  H  H34  1  0.56213200  0.85364200  0.38251800  1
  H  H35  1  0.54228550  0.15279750  0.38838600  1
  H  H36  1  0.21533150  0.32754950  0.23460600  1
  H  H37  1  0.16844850  0.71347150  0.20474000  1
  H  H38  1  0.45415250  0.28482250  0.30937700  1
  H  H39  1  0.30601300  0.24947800  0.22269000  1
  H  H40  1  0.45528350  0.71403950  0.29412500  1
  H  H41  1  0.29124800  0.70016500  0.23490400  1
  H  H42  1  0.42959850  0.29676550  0.16826900  1
  H  H43  1  0.41928350  0.76465150  0.09715700  1
  H  H44  1  0.29256250  0.69040650  0.08127600  1
  H  H45  1  0.29267400  0.29251600  0.07245300  1
  H  H46  1  0.53214400  0.85586400  0.16714400  1
  H  H47  1  0.53861700  0.14104100  0.17580100  1
  H  H48  1  0.19849850  0.35739950  0.96607700  1
  H  H49  1  0.18764400  0.63013000  0.94108600  1
  H  H50  1  0.04228550  0.34720250  0.88838600  1
  H  H51  1  0.06213200  0.64635800  0.88251800  1
  H  H52  1  0.95415250  0.21517750  0.80937700  1
  H  H53  1  0.95528350  0.78596050  0.79412500  1
  H  H54  1  0.91928350  0.73534850  0.59715700  1
  H  H55  1  0.92959850  0.20323450  0.66826900  1
  H  H56  1  0.79256250  0.80959350  0.58127600  1
  H  H57  1  0.79267400  0.20748400  0.57245300  1
  H  H58  1  0.03861700  0.35895900  0.67580100  1
  H  H59  1  0.03214400  0.64413600  0.66714400  1
  H  H60  1  0.21533150  0.67245050  0.73460600  1
  H  H61  1  0.16844850  0.28652850  0.70474000  1
  H  H62  1  0.29124800  0.29983500  0.73490400  1
  H  H63  1  0.30601300  0.75052200  0.72269000  1
  H  H64  1  0.19849850  0.64260050  0.46607700  1
  H  H65  1  0.18764400  0.36987000  0.44108600  1
  H  H66  1  0.06213200  0.35364200  0.38251800  1
  H  H67  1  0.04228550  0.65279750  0.38838600  1
  H  H68  1  0.71533150  0.82754950  0.23460600  1
  H  H69  1  0.66844850  0.21347150  0.20474000  1
  H  H70  1  0.95415250  0.78482250  0.30937700  1
  H  H71  1  0.80601300  0.74947800  0.22269000  1
  H  H72  1  0.95528350  0.21403950  0.29412500  1
  H  H73  1  0.79124800  0.20016500  0.23490400  1
  H  H74  1  0.92959850  0.79676550  0.16826900  1
  H  H75  1  0.91928350  0.26465150  0.09715700  1
  H  H76  1  0.79256250  0.19040650  0.08127600  1
  H  H77  1  0.79267400  0.79251600  0.07245300  1
  H  H78  1  0.03214400  0.35586400  0.16714400  1
  H  H79  1  0.03861700  0.64104100  0.17580100  1
  O  O80  1  0.50109050  0.74337350  0.88581100  1
  O  O81  1  0.49033600  0.26695200  0.86795600  1
  O  O82  1  0.30339250  0.76534350  0.03451800  1
  O  O83  1  0.74660000  0.75631000  0.99824000  1
  O  O84  1  0.62732600  0.05471500  0.89722700  1
  O  O85  1  0.38288350  0.66209850  0.69203400  1
  O  O86  1  0.75468450  0.28164150  0.74679200  1
  O  O87  1  0.74590100  0.76657500  0.76140300  1
  O  O88  1  0.74660000  0.24369000  0.49824000  1
  O  O89  1  0.55455800  0.77411700  0.63698300  1
  O  O90  1  0.49932500  0.25396900  0.63185900  1
  O  O91  1  0.30339250  0.23465650  0.53451800  1
  O  O92  1  0.24590100  0.73342500  0.26140300  1
  O  O93  1  0.49033600  0.73304800  0.36795600  1
  O  O94  1  0.50109050  0.25662650  0.38581100  1
  O  O95  1  0.25468450  0.21835850  0.24679200  1
  O  O96  1  0.62732600  0.94528500  0.39722700  1
  O  O97  1  0.38288350  0.33790150  0.19203400  1
  O  O98  1  0.55455800  0.22588300  0.13698300  1
  O  O99  1  0.49932500  0.74603100  0.13185900  1
  O  O100  1  0.00109050  0.24337350  0.88581100  1
  O  O101  1  0.99033600  0.76695200  0.86795600  1
  O  O102  1  0.80339250  0.26534350  0.03451800  1
  O  O103  1  0.24660000  0.25631000  0.99824000  1
  O  O104  1  0.12732600  0.55471500  0.89722700  1
  O  O105  1  0.88288350  0.16209850  0.69203400  1
  O  O106  1  0.25468450  0.78164150  0.74679200  1
  O  O107  1  0.24590100  0.26657500  0.76140300  1
  O  O108  1  0.24660000  0.74369000  0.49824000  1
  O  O109  1  0.05455800  0.27411700  0.63698300  1
  O  O110  1  0.99932500  0.75396900  0.63185900  1
  O  O111  1  0.80339250  0.73465650  0.53451800  1
  O  O112  1  0.74590100  0.23342500  0.26140300  1
  O  O113  1  0.99033600  0.23304800  0.36795600  1
  O  O114  1  0.00109050  0.75662650  0.38581100  1
  O  O115  1  0.75468450  0.71835850  0.24679200  1
  O  O116  1  0.12732600  0.44528500  0.39722700  1
  O  O117  1  0.88288350  0.83790150  0.19203400  1
  O  O118  1  0.05455800  0.72588300  0.13698300  1
  O  O119  1  0.99932500  0.24603100  0.13185900  1
