# generated using pymatgen
data_H12Pd(I2N)4
_symmetry_space_group_name_H-M   'P 1'
_cell_length_a   9.63508100
_cell_length_b   8.69690500
_cell_length_c   13.22117152
_cell_angle_alpha   90.00000000
_cell_angle_beta   100.96941860
_cell_angle_gamma   90.00000000
_symmetry_Int_Tables_number   1
_chemical_formula_structural   H12Pd(I2N)4
_chemical_formula_sum   'H24 Pd2 I16 N8'
_cell_volume   1087.63107055
_cell_formula_units_Z   2
loop_
 _symmetry_equiv_pos_site_id
 _symmetry_equiv_pos_as_xyz
  1  'x, y, z'
loop_
 _atom_site_type_symbol
 _atom_site_label
 _atom_site_symmetry_multiplicity
 _atom_site_fract_x
 _atom_site_fract_y
 _atom_site_fract_z
 _atom_site_occupancy
  H  H0  1  0.26214800  0.49508200  0.17033100  1
  H  H1  1  0.73785200  0.99508200  0.82966900  1
  H  H2  1  0.73785200  0.50491800  0.82966900  1
  H  H3  1  0.26214800  0.00491800  0.17033100  1
  H  H4  1  0.32894200  0.47216900  0.29534800  1
  H  H5  1  0.67105800  0.97216900  0.70465200  1
  H  H6  1  0.67105800  0.52783100  0.70465200  1
  H  H7  1  0.32894200  0.02783100  0.29534800  1
  H  H8  1  0.39475400  0.37525800  0.20660700  1
  H  H9  1  0.60524600  0.87525800  0.79339300  1
  H  H10  1  0.60524600  0.62474200  0.79339300  1
  H  H11  1  0.39475400  0.12474200  0.20660700  1
  H  H12  1  0.92834700  0.39464300  0.28102900  1
  H  H13  1  0.07165300  0.89464300  0.71897100  1
  H  H14  1  0.07165300  0.60535700  0.71897100  1
  H  H15  1  0.92834700  0.10535700  0.28102900  1
  H  H16  1  0.97034800  0.47471400  0.17727900  1
  H  H17  1  0.02965200  0.97471400  0.82272100  1
  H  H18  1  0.02965200  0.52528600  0.82272100  1
  H  H19  1  0.97034800  0.02528600  0.17727900  1
  H  H20  1  0.06314500  0.51513200  0.29283700  1
  H  H21  1  0.93685500  0.01513200  0.70716300  1
  H  H22  1  0.93685500  0.48486800  0.70716300  1
  H  H23  1  0.06314500  0.98486800  0.29283700  1
  Pd  Pd24  1  0.15429000  0.25000000  0.23605500  1
  Pd  Pd25  1  0.84571000  0.75000000  0.76394500  1
  I  I26  1  0.78933800  0.25000000  0.59291100  1
  I  I27  1  0.21066200  0.75000000  0.40708900  1
  I  I28  1  0.10492000  0.25000000  0.55442100  1
  I  I29  1  0.89508000  0.75000000  0.44557900  1
  I  I30  1  0.39087400  0.25000000  0.52885600  1
  I  I31  1  0.60912600  0.75000000  0.47114400  1
  I  I32  1  0.91839200  0.25000000  0.95544300  1
  I  I33  1  0.08160800  0.75000000  0.04455700  1
  I  I34  1  0.20769700  0.25000000  0.91021700  1
  I  I35  1  0.79230300  0.75000000  0.08978300  1
  I  I36  1  0.49883700  0.25000000  0.86865900  1
  I  I37  1  0.50116300  0.75000000  0.13134100  1
  I  I38  1  0.61114800  0.25000000  0.11743400  1
  I  I39  1  0.38885200  0.75000000  0.88256600  1
  I  I40  1  0.69245500  0.25000000  0.33738400  1
  I  I41  1  0.30754500  0.75000000  0.66261600  1
  N  N42  1  0.30277000  0.41645600  0.22564300  1
  N  N43  1  0.69723000  0.91645600  0.77435700  1
  N  N44  1  0.69723000  0.58354400  0.77435700  1
  N  N45  1  0.30277000  0.08354400  0.22564300  1
  N  N46  1  0.01235000  0.42762600  0.24756700  1
  N  N47  1  0.98765000  0.92762600  0.75243300  1
  N  N48  1  0.98765000  0.57237400  0.75243300  1
  N  N49  1  0.01235000  0.07237400  0.24756700  1
