# generated using pymatgen
data_Li2Sn4P4O15
_symmetry_space_group_name_H-M   'P 1'
_cell_length_a   10.31857600
_cell_length_b   15.61864000
_cell_length_c   20.34017173
_cell_angle_alpha   90.00000000
_cell_angle_beta   95.69793413
_cell_angle_gamma   90.00000000
_symmetry_Int_Tables_number   1
_chemical_formula_structural   Li2Sn4P4O15
_chemical_formula_sum   'Li16 Sn32 P32 O120'
_cell_volume   3261.86884801
_cell_formula_units_Z   8
loop_
 _symmetry_equiv_pos_site_id
 _symmetry_equiv_pos_as_xyz
  1  'x, y, z'
loop_
 _atom_site_type_symbol
 _atom_site_label
 _atom_site_symmetry_multiplicity
 _atom_site_fract_x
 _atom_site_fract_y
 _atom_site_fract_z
 _atom_site_occupancy
  Li  Li0  1  0.24431950  0.78444850  0.76058900  1
  Li  Li1  1  0.49190950  0.05038350  0.59755300  1
  Li  Li2  1  0.50809050  0.05038350  0.90244700  1
  Li  Li3  1  0.24431950  0.21555150  0.26058900  1
  Li  Li4  1  0.75568050  0.78444850  0.73941100  1
  Li  Li5  1  0.49190950  0.94961650  0.09755300  1
  Li  Li6  1  0.50809050  0.94961650  0.40244700  1
  Li  Li7  1  0.75568050  0.21555150  0.23941100  1
  Li  Li8  1  0.74431950  0.28444850  0.76058900  1
  Li  Li9  1  0.99190950  0.55038350  0.59755300  1
  Li  Li10  1  0.00809050  0.55038350  0.90244700  1
  Li  Li11  1  0.74431950  0.71555150  0.26058900  1
  Li  Li12  1  0.25568050  0.28444850  0.73941100  1
  Li  Li13  1  0.99190950  0.44961650  0.09755300  1
  Li  Li14  1  0.00809050  0.44961650  0.40244700  1
  Li  Li15  1  0.25568050  0.71555150  0.23941100  1
  Sn  Sn16  1  0.87709950  0.97302150  0.93430300  1
  Sn  Sn17  1  0.63094400  0.70396800  0.56335600  1
  Sn  Sn18  1  0.25000000  0.25000000  0.00000000  1
  Sn  Sn19  1  0.87709950  0.02697850  0.43430300  1
  Sn  Sn20  1  0.50000000  0.69394400  0.75000000  1
  Sn  Sn21  1  0.50000000  0.97897900  0.75000000  1
  Sn  Sn22  1  0.50000000  0.47516700  0.75000000  1
  Sn  Sn23  1  0.63094400  0.29603200  0.06335600  1
  Sn  Sn24  1  0.36905600  0.70396800  0.93664400  1
  Sn  Sn25  1  0.50000000  0.52483300  0.25000000  1
  Sn  Sn26  1  0.50000000  0.30605600  0.25000000  1
  Sn  Sn27  1  0.50000000  0.02102100  0.25000000  1
  Sn  Sn28  1  0.12290050  0.97302150  0.56569700  1
  Sn  Sn29  1  0.36905600  0.29603200  0.43664400  1
  Sn  Sn30  1  0.12290050  0.02697850  0.06569700  1
  Sn  Sn31  1  0.25000000  0.75000000  0.50000000  1
  Sn  Sn32  1  0.37709950  0.47302150  0.93430300  1
  Sn  Sn33  1  0.13094400  0.20396800  0.56335600  1
  Sn  Sn34  1  0.75000000  0.75000000  0.00000000  1
  Sn  Sn35  1  0.37709950  0.52697850  0.43430300  1
  Sn  Sn36  1  0.00000000  0.19394400  0.75000000  1
  Sn  Sn37  1  0.00000000  0.47897900  0.75000000  1
  Sn  Sn38  1  0.00000000  0.97516700  0.75000000  1
  Sn  Sn39  1  0.13094400  0.79603200  0.06335600  1
  Sn  Sn40  1  0.86905600  0.20396800  0.93664400  1
  Sn  Sn41  1  0.00000000  0.02483300  0.25000000  1
  Sn  Sn42  1  0.00000000  0.80605600  0.25000000  1
  Sn  Sn43  1  0.00000000  0.52102100  0.25000000  1
  Sn  Sn44  1  0.62290050  0.47302150  0.56569700  1
  Sn  Sn45  1  0.86905600  0.79603200  0.43664400  1
  Sn  Sn46  1  0.62290050  0.52697850  0.06569700  1
  Sn  Sn47  1  0.75000000  0.25000000  0.50000000  1
  P  P48  1  0.80769300  0.06882300  0.60410100  1
  P  P49  1  0.83115300  0.88061500  0.61258100  1
  P  P50  1  0.73515550  0.09941250  0.82191900  1
  P  P51  1  0.80769300  0.93117700  0.10410100  1
  P  P52  1  0.83115300  0.11938500  0.11258100  1
  P  P53  1  0.61642550  0.84619950  0.87218100  1
  P  P54  1  0.73515550  0.90058750  0.32191900  1
  P  P55  1  0.38357450  0.84619950  0.62781900  1
  P  P56  1  0.61642550  0.15380050  0.37218100  1
  P  P57  1  0.26484450  0.09941250  0.67808100  1
  P  P58  1  0.38357450  0.15380050  0.12781900  1
  P  P59  1  0.16884700  0.88061500  0.88741900  1
  P  P60  1  0.19230700  0.06882300  0.89589900  1
  P  P61  1  0.26484450  0.90058750  0.17808100  1
  P  P62  1  0.16884700  0.11938500  0.38741900  1
  P  P63  1  0.19230700  0.93117700  0.39589900  1
  P  P64  1  0.30769300  0.56882300  0.60410100  1
  P  P65  1  0.33115300  0.38061500  0.61258100  1
  P  P66  1  0.23515550  0.59941250  0.82191900  1
  P  P67  1  0.30769300  0.43117700  0.10410100  1
  P  P68  1  0.33115300  0.61938500  0.11258100  1
  P  P69  1  0.11642550  0.34619950  0.87218100  1
  P  P70  1  0.23515550  0.40058750  0.32191900  1
  P  P71  1  0.88357450  0.34619950  0.62781900  1
  P  P72  1  0.11642550  0.65380050  0.37218100  1
  P  P73  1  0.76484450  0.59941250  0.67808100  1
  P  P74  1  0.88357450  0.65380050  0.12781900  1
  P  P75  1  0.66884700  0.38061500  0.88741900  1
  P  P76  1  0.69230700  0.56882300  0.89589900  1
  P  P77  1  0.76484450  0.40058750  0.17808100  1
  P  P78  1  0.66884700  0.61938500  0.38741900  1
  P  P79  1  0.69230700  0.43117700  0.39589900  1
  O  O80  1  0.86432400  0.07346700  0.67721200  1
  O  O81  1  0.83900600  0.02525500  0.82517800  1
  O  O82  1  0.75708250  0.96920550  0.59074600  1
  O  O83  1  0.68310850  0.12023750  0.58475700  1
  O  O84  1  0.75866000  0.81356900  0.56695200  1
  O  O85  1  0.86432400  0.92653300  0.17721200  1
  O  O86  1  0.67281450  0.10391650  0.88793900  1
  O  O87  1  0.75800450  0.85340650  0.90840100  1
  O  O88  1  0.18775150  0.18772550  0.68237600  1
  O  O89  1  0.83900600  0.97474500  0.32517800  1
  O  O90  1  0.63466700  0.08958600  0.76165400  1
  O  O91  1  0.75708250  0.03079450  0.09074600  1
  O  O92  1  0.68310850  0.87976250  0.08475700  1
  O  O93  1  0.75866000  0.18643100  0.06695200  1
  O  O94  1  0.62604800  0.80944800  0.80111200  1
  O  O95  1  0.17753300  0.86599900  0.81411900  1
  O  O96  1  0.91420050  0.08511550  0.55722200  1
  O  O97  1  0.47364200  0.38876500  0.59674800  1
  O  O98  1  0.45234800  0.77914100  0.58579700  1
  O  O99  1  0.67281450  0.89608350  0.38793900  1
  O  O100  1  0.45329600  0.93327500  0.62999100  1
  O  O101  1  0.75800450  0.14659350  0.40840100  1
  O  O102  1  0.54670400  0.93327500  0.87000900  1
  O  O103  1  0.54765200  0.77914100  0.91420300  1
  O  O104  1  0.52635800  0.38876500  0.90325200  1
  O  O105  1  0.08579950  0.08511550  0.94277800  1
  O  O106  1  0.18775150  0.81227450  0.18237600  1
  O  O107  1  0.63466700  0.91041400  0.26165400  1
  O  O108  1  0.82246700  0.86599900  0.68588100  1
  O  O109  1  0.37395200  0.80944800  0.69888800  1
  O  O110  1  0.62604800  0.19055200  0.30111200  1
  O  O111  1  0.17753300  0.13400100  0.31411900  1
  O  O112  1  0.36533300  0.08958600  0.73834600  1
  O  O113  1  0.81224850  0.18772550  0.81762400  1
  O  O114  1  0.91420050  0.91488450  0.05722200  1
  O  O115  1  0.47364200  0.61123500  0.09674800  1
  O  O116  1  0.45234800  0.22085900  0.08579700  1
  O  O117  1  0.45329600  0.06672500  0.12999100  1
  O  O118  1  0.24199550  0.85340650  0.59159900  1
  O  O119  1  0.54670400  0.06672500  0.37000900  1
  O  O120  1  0.32718550  0.10391650  0.61206100  1
  O  O121  1  0.54765200  0.22085900  0.41420300  1
  O  O122  1  0.52635800  0.61123500  0.40325200  1
  O  O123  1  0.08579950  0.91488450  0.44277800  1
  O  O124  1  0.82246700  0.13400100  0.18588100  1
  O  O125  1  0.37395200  0.19055200  0.19888800  1
  O  O126  1  0.24134000  0.81356900  0.93304800  1
  O  O127  1  0.31689150  0.12023750  0.91524300  1
  O  O128  1  0.24291750  0.96920550  0.90925400  1
  O  O129  1  0.36533300  0.91041400  0.23834600  1
  O  O130  1  0.16099400  0.02525500  0.67482200  1
  O  O131  1  0.81224850  0.81227450  0.31762400  1
  O  O132  1  0.24199550  0.14659350  0.09159900  1
  O  O133  1  0.32718550  0.89608350  0.11206100  1
  O  O134  1  0.13567600  0.07346700  0.82278800  1
  O  O135  1  0.24134000  0.18643100  0.43304800  1
  O  O136  1  0.31689150  0.87976250  0.41524300  1
  O  O137  1  0.24291750  0.03079450  0.40925400  1
  O  O138  1  0.16099400  0.97474500  0.17482200  1
  O  O139  1  0.13567600  0.92653300  0.32278800  1
  O  O140  1  0.36432400  0.57346700  0.67721200  1
  O  O141  1  0.33900600  0.52525500  0.82517800  1
  O  O142  1  0.25708250  0.46920550  0.59074600  1
  O  O143  1  0.18310850  0.62023750  0.58475700  1
  O  O144  1  0.25866000  0.31356900  0.56695200  1
  O  O145  1  0.36432400  0.42653300  0.17721200  1
  O  O146  1  0.17281450  0.60391650  0.88793900  1
  O  O147  1  0.25800450  0.35340650  0.90840100  1
  O  O148  1  0.68775150  0.68772550  0.68237600  1
  O  O149  1  0.33900600  0.47474500  0.32517800  1
  O  O150  1  0.13466700  0.58958600  0.76165400  1
  O  O151  1  0.25708250  0.53079450  0.09074600  1
  O  O152  1  0.18310850  0.37976250  0.08475700  1
  O  O153  1  0.25866000  0.68643100  0.06695200  1
  O  O154  1  0.12604800  0.30944800  0.80111200  1
  O  O155  1  0.67753300  0.36599900  0.81411900  1
  O  O156  1  0.41420050  0.58511550  0.55722200  1
  O  O157  1  0.97364200  0.88876500  0.59674800  1
  O  O158  1  0.95234800  0.27914100  0.58579700  1
  O  O159  1  0.17281450  0.39608350  0.38793900  1
  O  O160  1  0.95329600  0.43327500  0.62999100  1
  O  O161  1  0.25800450  0.64659350  0.40840100  1
  O  O162  1  0.04670400  0.43327500  0.87000900  1
  O  O163  1  0.04765200  0.27914100  0.91420300  1
  O  O164  1  0.02635800  0.88876500  0.90325200  1
  O  O165  1  0.58579950  0.58511550  0.94277800  1
  O  O166  1  0.68775150  0.31227450  0.18237600  1
  O  O167  1  0.13466700  0.41041400  0.26165400  1
  O  O168  1  0.32246700  0.36599900  0.68588100  1
  O  O169  1  0.87395200  0.30944800  0.69888800  1
  O  O170  1  0.12604800  0.69055200  0.30111200  1
  O  O171  1  0.67753300  0.63400100  0.31411900  1
  O  O172  1  0.86533300  0.58958600  0.73834600  1
  O  O173  1  0.31224850  0.68772550  0.81762400  1
  O  O174  1  0.41420050  0.41488450  0.05722200  1
  O  O175  1  0.97364200  0.11123500  0.09674800  1
  O  O176  1  0.95234800  0.72085900  0.08579700  1
  O  O177  1  0.95329600  0.56672500  0.12999100  1
  O  O178  1  0.74199550  0.35340650  0.59159900  1
  O  O179  1  0.04670400  0.56672500  0.37000900  1
  O  O180  1  0.82718550  0.60391650  0.61206100  1
  O  O181  1  0.04765200  0.72085900  0.41420300  1
  O  O182  1  0.02635800  0.11123500  0.40325200  1
  O  O183  1  0.58579950  0.41488450  0.44277800  1
  O  O184  1  0.32246700  0.63400100  0.18588100  1
  O  O185  1  0.87395200  0.69055200  0.19888800  1
  O  O186  1  0.74134000  0.31356900  0.93304800  1
  O  O187  1  0.81689150  0.62023750  0.91524300  1
  O  O188  1  0.74291750  0.46920550  0.90925400  1
  O  O189  1  0.86533300  0.41041400  0.23834600  1
  O  O190  1  0.66099400  0.52525500  0.67482200  1
  O  O191  1  0.31224850  0.31227450  0.31762400  1
  O  O192  1  0.74199550  0.64659350  0.09159900  1
  O  O193  1  0.82718550  0.39608350  0.11206100  1
  O  O194  1  0.63567600  0.57346700  0.82278800  1
  O  O195  1  0.74134000  0.68643100  0.43304800  1
  O  O196  1  0.81689150  0.37976250  0.41524300  1
  O  O197  1  0.74291750  0.53079450  0.40925400  1
  O  O198  1  0.66099400  0.47474500  0.17482200  1
  O  O199  1  0.63567600  0.42653300  0.32278800  1
