# generated using pymatgen
data_Gd3As5O12
_symmetry_space_group_name_H-M   'P 1'
_cell_length_a   10.74410400
_cell_length_b   10.74410400
_cell_length_c   10.74410400
_cell_angle_alpha   90.00000000
_cell_angle_beta   90.00000000
_cell_angle_gamma   90.00000000
_symmetry_Int_Tables_number   1
_chemical_formula_structural   Gd3As5O12
_chemical_formula_sum   'Gd12 As20 O48'
_cell_volume   1240.25392640
_cell_formula_units_Z   4
loop_
 _symmetry_equiv_pos_site_id
 _symmetry_equiv_pos_as_xyz
  1  'x, y, z'
loop_
 _atom_site_type_symbol
 _atom_site_label
 _atom_site_symmetry_multiplicity
 _atom_site_fract_x
 _atom_site_fract_y
 _atom_site_fract_z
 _atom_site_occupancy
  Gd  Gd0  1  0.00000000  0.25000000  0.50000000  1
  Gd  Gd1  1  0.25000000  0.00000000  0.50000000  1
  Gd  Gd2  1  0.00000000  0.50000000  0.25000000  1
  Gd  Gd3  1  0.50000000  0.00000000  0.25000000  1
  Gd  Gd4  1  0.50000000  0.25000000  0.00000000  1
  Gd  Gd5  1  0.25000000  0.50000000  0.00000000  1
  Gd  Gd6  1  0.50000000  0.75000000  0.00000000  1
  Gd  Gd7  1  0.75000000  0.50000000  0.00000000  1
  Gd  Gd8  1  0.50000000  0.00000000  0.75000000  1
  Gd  Gd9  1  0.00000000  0.50000000  0.75000000  1
  Gd  Gd10  1  0.00000000  0.75000000  0.50000000  1
  Gd  Gd11  1  0.75000000  0.00000000  0.50000000  1
  As  As12  1  0.00000000  0.00000000  0.71259700  1
  As  As13  1  0.25205950  0.25205950  0.74794050  1
  As  As14  1  0.28740300  0.00000000  0.00000000  1
  As  As15  1  0.00000000  0.28740300  0.00000000  1
  As  As16  1  0.24794050  0.24794050  0.24794050  1
  As  As17  1  0.00000000  0.71259700  0.00000000  1
  As  As18  1  0.71259700  0.00000000  0.00000000  1
  As  As19  1  0.25205950  0.74794050  0.25205950  1
  As  As20  1  0.74794050  0.25205950  0.25205950  1
  As  As21  1  0.00000000  0.00000000  0.28740300  1
  As  As22  1  0.50000000  0.50000000  0.21259700  1
  As  As23  1  0.75205950  0.75205950  0.24794050  1
  As  As24  1  0.78740300  0.50000000  0.50000000  1
  As  As25  1  0.50000000  0.78740300  0.50000000  1
  As  As26  1  0.74794050  0.74794050  0.74794050  1
  As  As27  1  0.50000000  0.21259700  0.50000000  1
  As  As28  1  0.21259700  0.50000000  0.50000000  1
  As  As29  1  0.75205950  0.24794050  0.75205950  1
  As  As30  1  0.24794050  0.75205950  0.75205950  1
  As  As31  1  0.50000000  0.50000000  0.78740300  1
  O  O32  1  0.09251150  0.09251150  0.61017650  1
  O  O33  1  0.09251150  0.90748850  0.38982350  1
  O  O34  1  0.90748850  0.09251150  0.38982350  1
  O  O35  1  0.83333150  0.35835750  0.35835750  1
  O  O36  1  0.35835750  0.83333150  0.35835750  1
  O  O37  1  0.66666850  0.85835750  0.14164250  1
  O  O38  1  0.85835750  0.66666850  0.14164250  1
  O  O39  1  0.14164250  0.14164250  0.33333150  1
  O  O40  1  0.40748850  0.11017650  0.40748850  1
  O  O41  1  0.11017650  0.40748850  0.40748850  1
  O  O42  1  0.38982350  0.90748850  0.09251150  1
  O  O43  1  0.90748850  0.38982350  0.09251150  1
  O  O44  1  0.33333150  0.14164250  0.14164250  1
  O  O45  1  0.14164250  0.33333150  0.14164250  1
  O  O46  1  0.66666850  0.14164250  0.85835750  1
  O  O47  1  0.14164250  0.66666850  0.85835750  1
  O  O48  1  0.09251150  0.61017650  0.09251150  1
  O  O49  1  0.61017650  0.09251150  0.09251150  1
  O  O50  1  0.38982350  0.09251150  0.90748850  1
  O  O51  1  0.09251150  0.38982350  0.90748850  1
  O  O52  1  0.40748850  0.40748850  0.11017650  1
  O  O53  1  0.14164250  0.85835750  0.66666850  1
  O  O54  1  0.85835750  0.14164250  0.66666850  1
  O  O55  1  0.35835750  0.35835750  0.83333150  1
  O  O56  1  0.59251150  0.59251150  0.11017650  1
  O  O57  1  0.59251150  0.40748850  0.88982350  1
  O  O58  1  0.40748850  0.59251150  0.88982350  1
  O  O59  1  0.33333150  0.85835750  0.85835750  1
  O  O60  1  0.85835750  0.33333150  0.85835750  1
  O  O61  1  0.16666850  0.35835750  0.64164250  1
  O  O62  1  0.35835750  0.16666850  0.64164250  1
  O  O63  1  0.64164250  0.64164250  0.83333150  1
  O  O64  1  0.90748850  0.61017650  0.90748850  1
  O  O65  1  0.61017650  0.90748850  0.90748850  1
  O  O66  1  0.88982350  0.40748850  0.59251150  1
  O  O67  1  0.40748850  0.88982350  0.59251150  1
  O  O68  1  0.83333150  0.64164250  0.64164250  1
  O  O69  1  0.64164250  0.83333150  0.64164250  1
  O  O70  1  0.16666850  0.64164250  0.35835750  1
  O  O71  1  0.64164250  0.16666850  0.35835750  1
  O  O72  1  0.59251150  0.11017650  0.59251150  1
  O  O73  1  0.11017650  0.59251150  0.59251150  1
  O  O74  1  0.88982350  0.59251150  0.40748850  1
  O  O75  1  0.59251150  0.88982350  0.40748850  1
  O  O76  1  0.90748850  0.90748850  0.61017650  1
  O  O77  1  0.64164250  0.35835750  0.16666850  1
  O  O78  1  0.35835750  0.64164250  0.16666850  1
  O  O79  1  0.85835750  0.85835750  0.33333150  1
