# generated using pymatgen
data_LiVF3
_symmetry_space_group_name_H-M   'P 1'
_cell_length_a   11.09576000
_cell_length_b   9.35510800
_cell_length_c   5.78220971
_cell_angle_alpha   90.00000000
_cell_angle_beta   115.21521054
_cell_angle_gamma   90.00000000
_symmetry_Int_Tables_number   1
_chemical_formula_structural   LiVF3
_chemical_formula_sum   'Li8 V8 F24'
_cell_volume   543.01397067
_cell_formula_units_Z   8
loop_
 _symmetry_equiv_pos_site_id
 _symmetry_equiv_pos_as_xyz
  1  'x, y, z'
loop_
 _atom_site_type_symbol
 _atom_site_label
 _atom_site_symmetry_multiplicity
 _atom_site_fract_x
 _atom_site_fract_y
 _atom_site_fract_z
 _atom_site_occupancy
  Li  Li0  1  0.19619200  0.42491200  0.67591500  1
  Li  Li1  1  0.19619200  0.57508800  0.17591500  1
  Li  Li2  1  0.80380800  0.42491200  0.82408500  1
  Li  Li3  1  0.80380800  0.57508800  0.32408500  1
  Li  Li4  1  0.69619200  0.92491200  0.67591500  1
  Li  Li5  1  0.69619200  0.07508800  0.17591500  1
  Li  Li6  1  0.30380800  0.92491200  0.82408500  1
  Li  Li7  1  0.30380800  0.07508800  0.32408500  1
  V  V8  1  0.00000000  0.09327800  0.75000000  1
  V  V9  1  0.00000000  0.73131400  0.75000000  1
  V  V10  1  0.00000000  0.26868600  0.25000000  1
  V  V11  1  0.00000000  0.90672200  0.25000000  1
  V  V12  1  0.50000000  0.59327800  0.75000000  1
  V  V13  1  0.50000000  0.23131400  0.75000000  1
  V  V14  1  0.50000000  0.76868600  0.25000000  1
  V  V15  1  0.50000000  0.40672200  0.25000000  1
  F  F16  1  0.39473750  0.41741550  0.83296000  1
  F  F17  1  0.39473750  0.58258450  0.33296000  1
  F  F18  1  0.10211250  0.24992750  0.65406500  1
  F  F19  1  0.14385200  0.57550200  0.81563500  1
  F  F20  1  0.10211250  0.75007250  0.15406500  1
  F  F21  1  0.14385200  0.42449800  0.31563500  1
  F  F22  1  0.85614800  0.57550200  0.68436500  1
  F  F23  1  0.89788750  0.24992750  0.84593500  1
  F  F24  1  0.85614800  0.42449800  0.18436500  1
  F  F25  1  0.89788750  0.75007250  0.34593500  1
  F  F26  1  0.60526250  0.41741550  0.66704000  1
  F  F27  1  0.60526250  0.58258450  0.16704000  1
  F  F28  1  0.89473750  0.91741550  0.83296000  1
  F  F29  1  0.89473750  0.08258450  0.33296000  1
  F  F30  1  0.60211250  0.74992750  0.65406500  1
  F  F31  1  0.64385200  0.07550200  0.81563500  1
  F  F32  1  0.60211250  0.25007250  0.15406500  1
  F  F33  1  0.64385200  0.92449800  0.31563500  1
  F  F34  1  0.35614800  0.07550200  0.68436500  1
  F  F35  1  0.39788750  0.74992750  0.84593500  1
  F  F36  1  0.35614800  0.92449800  0.18436500  1
  F  F37  1  0.39788750  0.25007250  0.34593500  1
  F  F38  1  0.10526250  0.91741550  0.66704000  1
  F  F39  1  0.10526250  0.08258450  0.16704000  1
