# generated using pymatgen
data_Mn3TeO6
_symmetry_space_group_name_H-M   'P 1'
_cell_length_a   5.42743305
_cell_length_b   5.42743305
_cell_length_c   14.28119148
_cell_angle_alpha   90.00000000
_cell_angle_beta   90.00000000
_cell_angle_gamma   120.00000000
_symmetry_Int_Tables_number   1
_chemical_formula_structural   Mn3TeO6
_chemical_formula_sum   'Mn9 Te3 O18'
_cell_volume   364.32084735
_cell_formula_units_Z   3
loop_
 _symmetry_equiv_pos_site_id
 _symmetry_equiv_pos_as_xyz
  1  'x, y, z'
loop_
 _atom_site_type_symbol
 _atom_site_label
 _atom_site_symmetry_multiplicity
 _atom_site_fract_x
 _atom_site_fract_y
 _atom_site_fract_z
 _atom_site_occupancy
  Mn  Mn0  1  0.00000000  0.00000000  0.63289817  1
  Mn  Mn1  1  0.66666667  0.33333333  0.47413750  1
  Mn  Mn2  1  0.00000000  0.00000000  0.35795783  1
  Mn  Mn3  1  0.66666667  0.33333333  0.96623150  1
  Mn  Mn4  1  0.33333333  0.66666667  0.80747083  1
  Mn  Mn5  1  0.66666667  0.33333333  0.69129117  1
  Mn  Mn6  1  0.33333333  0.66666667  0.29956483  1
  Mn  Mn7  1  0.00000000  0.00000000  0.14080417  1
  Mn  Mn8  1  0.33333333  0.66666667  0.02462450  1
  Te  Te9  1  0.33333333  0.66666667  0.51208717  1
  Te  Te10  1  0.00000000  0.00000000  0.84542050  1
  Te  Te11  1  0.66666667  0.33333333  0.17875383  1
  O  O12  1  0.00732467  0.62881083  0.58286483  1
  O  O13  1  0.37118917  0.37851383  0.58286483  1
  O  O14  1  0.62148617  0.99267533  0.58286483  1
  O  O15  1  0.32041300  0.94422900  0.42467950  1
  O  O16  1  0.62381600  0.67958700  0.42467950  1
  O  O17  1  0.05577100  0.37618400  0.42467950  1
  O  O18  1  0.67399133  0.96214417  0.91619817  1
  O  O19  1  0.03785583  0.71184717  0.91619817  1
  O  O20  1  0.28815283  0.32600867  0.91619817  1
  O  O21  1  0.98707967  0.27756233  0.75801283  1
  O  O22  1  0.29048267  0.01292033  0.75801283  1
  O  O23  1  0.72243767  0.70951733  0.75801283  1
  O  O24  1  0.34065800  0.29547750  0.24953150  1
  O  O25  1  0.70452250  0.04518050  0.24953150  1
  O  O26  1  0.95481950  0.65934200  0.24953150  1
  O  O27  1  0.65374633  0.61089567  0.09134617  1
  O  O28  1  0.95714933  0.34625367  0.09134617  1
  O  O29  1  0.38910433  0.04285067  0.09134617  1
