# generated using pymatgen
data_MnFe2O3
_symmetry_space_group_name_H-M   'P 1'
_cell_length_a   4.47107400
_cell_length_b   13.19559000
_cell_length_c   4.47095500
_cell_angle_alpha   90.00000000
_cell_angle_beta   90.00000000
_cell_angle_gamma   90.00000000
_symmetry_Int_Tables_number   1
_chemical_formula_structural   MnFe2O3
_chemical_formula_sum   'Mn4 Fe8 O12'
_cell_volume   263.77945688
_cell_formula_units_Z   4
loop_
 _symmetry_equiv_pos_site_id
 _symmetry_equiv_pos_as_xyz
  1  'x, y, z'
loop_
 _atom_site_type_symbol
 _atom_site_label
 _atom_site_symmetry_multiplicity
 _atom_site_fract_x
 _atom_site_fract_y
 _atom_site_fract_z
 _atom_site_occupancy
  Mn  Mn0  1  0.00000000  0.33461800  0.00000000  1
  Mn  Mn1  1  0.50000000  0.16538200  0.00000000  1
  Mn  Mn2  1  0.50000000  0.83461800  0.00000000  1
  Mn  Mn3  1  0.00000000  0.66538200  0.00000000  1
  Fe  Fe4  1  0.50000000  0.33123500  0.50000000  1
  Fe  Fe5  1  0.00000000  0.16876500  0.50000000  1
  Fe  Fe6  1  0.00000000  0.00000000  0.00000000  1
  Fe  Fe7  1  0.50000000  0.00000000  0.50000000  1
  Fe  Fe8  1  0.00000000  0.83123500  0.50000000  1
  Fe  Fe9  1  0.50000000  0.66876500  0.50000000  1
  Fe  Fe10  1  0.50000000  0.50000000  0.00000000  1
  Fe  Fe11  1  0.00000000  0.50000000  0.50000000  1
  O  O12  1  0.00000000  0.33094600  0.50000000  1
  O  O13  1  0.50000000  0.33574500  0.00000000  1
  O  O14  1  0.50000000  0.16905400  0.50000000  1
  O  O15  1  0.00000000  0.16425500  0.00000000  1
  O  O16  1  0.50000000  0.00000000  0.00000000  1
  O  O17  1  0.00000000  0.00000000  0.50000000  1
  O  O18  1  0.50000000  0.83094600  0.50000000  1
  O  O19  1  0.00000000  0.83574500  0.00000000  1
  O  O20  1  0.00000000  0.66905400  0.50000000  1
  O  O21  1  0.50000000  0.66425500  0.00000000  1
  O  O22  1  0.00000000  0.50000000  0.00000000  1
  O  O23  1  0.50000000  0.50000000  0.50000000  1
