# generated using pymatgen
data_Li2Cr3CoO8
_symmetry_space_group_name_H-M   'P 1'
_cell_length_a   10.15756200
_cell_length_b   5.84604000
_cell_length_c   5.97699474
_cell_angle_alpha   90.00000000
_cell_angle_beta   124.88824404
_cell_angle_gamma   90.00000000
_symmetry_Int_Tables_number   1
_chemical_formula_structural   Li2Cr3CoO8
_chemical_formula_sum   'Li4 Cr6 Co2 O16'
_cell_volume   291.13241965
_cell_formula_units_Z   2
loop_
 _symmetry_equiv_pos_site_id
 _symmetry_equiv_pos_as_xyz
  1  'x, y, z'
loop_
 _atom_site_type_symbol
 _atom_site_label
 _atom_site_symmetry_multiplicity
 _atom_site_fract_x
 _atom_site_fract_y
 _atom_site_fract_z
 _atom_site_occupancy
  Li  Li0  1  0.75000000  0.75000000  0.50000000  1
  Li  Li1  1  0.75000000  0.25000000  0.50000000  1
  Li  Li2  1  0.25000000  0.25000000  0.50000000  1
  Li  Li3  1  0.25000000  0.75000000  0.50000000  1
  Cr  Cr4  1  0.75000000  0.75000000  0.00000000  1
  Cr  Cr5  1  0.75000000  0.25000000  0.00000000  1
  Cr  Cr6  1  0.00000000  0.50000000  0.00000000  1
  Cr  Cr7  1  0.25000000  0.25000000  0.00000000  1
  Cr  Cr8  1  0.25000000  0.75000000  0.00000000  1
  Cr  Cr9  1  0.50000000  0.00000000  0.00000000  1
  Co  Co10  1  0.00000000  0.00000000  0.00000000  1
  Co  Co11  1  0.50000000  0.50000000  0.00000000  1
  O  O12  1  0.77114700  0.00000000  0.78834900  1
  O  O13  1  0.50789000  0.74426700  0.79543400  1
  O  O14  1  0.50789000  0.25573300  0.79543400  1
  O  O15  1  0.76961800  0.50000000  0.78713500  1
  O  O16  1  0.23038200  0.50000000  0.21286500  1
  O  O17  1  0.49211000  0.74426700  0.20456600  1
  O  O18  1  0.49211000  0.25573300  0.20456600  1
  O  O19  1  0.22885300  0.00000000  0.21165100  1
  O  O20  1  0.27114700  0.50000000  0.78834900  1
  O  O21  1  0.00789000  0.24426700  0.79543400  1
  O  O22  1  0.00789000  0.75573300  0.79543400  1
  O  O23  1  0.26961800  0.00000000  0.78713500  1
  O  O24  1  0.73038200  0.00000000  0.21286500  1
  O  O25  1  0.99211000  0.24426700  0.20456600  1
  O  O26  1  0.99211000  0.75573300  0.20456600  1
  O  O27  1  0.72885300  0.50000000  0.21165100  1
