# generated using pymatgen
data_Cu2H2Se2O7
_symmetry_space_group_name_H-M   'P 1'
_cell_length_a   8.55119800
_cell_length_b   7.63796700
_cell_length_c   10.63132469
_cell_angle_alpha   90.00000000
_cell_angle_beta   111.62299812
_cell_angle_gamma   90.00000000
_symmetry_Int_Tables_number   1
_chemical_formula_structural   Cu2H2Se2O7
_chemical_formula_sum   'Cu8 H8 Se8 O28'
_cell_volume   645.50798821
_cell_formula_units_Z   4
loop_
 _symmetry_equiv_pos_site_id
 _symmetry_equiv_pos_as_xyz
  1  'x, y, z'
loop_
 _atom_site_type_symbol
 _atom_site_label
 _atom_site_symmetry_multiplicity
 _atom_site_fract_x
 _atom_site_fract_y
 _atom_site_fract_z
 _atom_site_occupancy
  Cu  Cu0  1  0.92088400  0.30215800  0.47301900  1
  Cu  Cu1  1  0.07911600  0.80215800  0.02698100  1
  Cu  Cu2  1  0.07911600  0.69784200  0.52698100  1
  Cu  Cu3  1  0.92088400  0.19784200  0.97301900  1
  Cu  Cu4  1  0.65811300  0.29027100  0.11065000  1
  Cu  Cu5  1  0.34188700  0.79027100  0.38935000  1
  Cu  Cu6  1  0.34188700  0.70972900  0.88935000  1
  Cu  Cu7  1  0.65811300  0.20972900  0.61065000  1
  H  H8  1  0.27228900  0.25872500  0.57463800  1
  H  H9  1  0.72771100  0.75872500  0.92536200  1
  H  H10  1  0.72771100  0.74127500  0.42536200  1
  H  H11  1  0.27228900  0.24127500  0.07463800  1
  H  H12  1  0.17296900  0.08668500  0.60353000  1
  H  H13  1  0.82703100  0.58668500  0.89647000  1
  H  H14  1  0.82703100  0.91331500  0.39647000  1
  H  H15  1  0.17296900  0.41331500  0.10353000  1
  Se  Se16  1  0.05894700  0.40191600  0.78529500  1
  Se  Se17  1  0.94105300  0.90191600  0.71470500  1
  Se  Se18  1  0.94105300  0.59808400  0.21470500  1
  Se  Se19  1  0.05894700  0.09808400  0.28529500  1
  Se  Se20  1  0.51263500  0.43827200  0.32902900  1
  Se  Se21  1  0.48736500  0.93827200  0.17097100  1
  Se  Se22  1  0.48736500  0.56172800  0.67097100  1
  Se  Se23  1  0.51263500  0.06172800  0.82902900  1
  O  O24  1  0.12895400  0.59871000  0.87144500  1
  O  O25  1  0.87104600  0.09871000  0.62855500  1
  O  O26  1  0.87104600  0.40129000  0.12855500  1
  O  O27  1  0.12895400  0.90129000  0.37144500  1
  O  O28  1  0.97087500  0.48245300  0.61986100  1
  O  O29  1  0.02912500  0.98245300  0.88013900  1
  O  O30  1  0.02912500  0.51754700  0.38013900  1
  O  O31  1  0.97087500  0.01754700  0.11986100  1
  O  O32  1  0.87571300  0.37395500  0.82308000  1
  O  O33  1  0.12428700  0.87395500  0.67692000  1
  O  O34  1  0.12428700  0.62604500  0.17692000  1
  O  O35  1  0.87571300  0.12604500  0.32308000  1
  O  O36  1  0.60079900  0.47833100  0.21078400  1
  O  O37  1  0.39920100  0.97833100  0.28921600  1
  O  O38  1  0.39920100  0.52166900  0.78921600  1
  O  O39  1  0.60079900  0.02166900  0.71078400  1
  O  O40  1  0.53889900  0.64599100  0.40243900  1
  O  O41  1  0.46110100  0.14599100  0.09756100  1
  O  O42  1  0.46110100  0.35400900  0.59756100  1
  O  O43  1  0.53889900  0.85400900  0.90243900  1
  O  O44  1  0.67739100  0.31809500  0.44754700  1
  O  O45  1  0.32260900  0.81809500  0.05245300  1
  O  O46  1  0.32260900  0.68190500  0.55245300  1
  O  O47  1  0.67739100  0.18190500  0.94754700  1
  O  O48  1  0.16141800  0.20173500  0.55932300  1
  O  O49  1  0.83858200  0.70173500  0.94067700  1
  O  O50  1  0.83858200  0.79826500  0.44067700  1
  O  O51  1  0.16141800  0.29826500  0.05932300  1
