# generated using pymatgen
data_LiSb(TeO4)3
_symmetry_space_group_name_H-M   'P 1'
_cell_length_a   4.95244300
_cell_length_b   8.50281100
_cell_length_c   5.25360968
_cell_angle_alpha   90.00000000
_cell_angle_beta   90.47255071
_cell_angle_gamma   90.00000000
_symmetry_Int_Tables_number   1
_chemical_formula_structural   LiSb(TeO4)3
_chemical_formula_sum   'Li1 Sb1 Te3 O12'
_cell_volume   221.22033413
_cell_formula_units_Z   1
loop_
 _symmetry_equiv_pos_site_id
 _symmetry_equiv_pos_as_xyz
  1  'x, y, z'
loop_
 _atom_site_type_symbol
 _atom_site_label
 _atom_site_symmetry_multiplicity
 _atom_site_fract_x
 _atom_site_fract_y
 _atom_site_fract_z
 _atom_site_occupancy
  Li  Li0  1  0.50000000  0.19894000  0.50000000  1
  Sb  Sb1  1  0.00000000  0.09866200  0.00000000  1
  Te  Te2  1  0.50000000  0.41659500  0.00000000  1
  Te  Te3  1  0.50000000  0.60223800  0.50000000  1
  Te  Te4  1  0.00000000  0.91308900  0.50000000  1
  O  O5  1  0.70738600  0.58302100  0.81788700  1
  O  O6  1  0.73805000  0.25858100  0.85710900  1
  O  O7  1  0.78982800  0.93079600  0.80531500  1
  O  O8  1  0.24712600  0.75185900  0.63917400  1
  O  O9  1  0.21622500  0.07763100  0.67822300  1
  O  O10  1  0.29575600  0.42699100  0.67758000  1
  O  O11  1  0.70424400  0.42699100  0.32242000  1
  O  O12  1  0.78377500  0.07763100  0.32177700  1
  O  O13  1  0.75287400  0.75185900  0.36082600  1
  O  O14  1  0.21017200  0.93079600  0.19468500  1
  O  O15  1  0.26195000  0.25858100  0.14289100  1
  O  O16  1  0.29261400  0.58302100  0.18211300  1
