# generated using pymatgen
data_LiSb3(P3O10)2
_symmetry_space_group_name_H-M   'P 1'
_cell_length_a   10.73655200
_cell_length_b   13.93987800
_cell_length_c   12.82297800
_cell_angle_alpha   90.00000000
_cell_angle_beta   90.00000000
_cell_angle_gamma   90.00000000
_symmetry_Int_Tables_number   1
_chemical_formula_structural   LiSb3(P3O10)2
_chemical_formula_sum   'Li4 Sb12 P24 O80'
_cell_volume   1919.16671078
_cell_formula_units_Z   4
loop_
 _symmetry_equiv_pos_site_id
 _symmetry_equiv_pos_as_xyz
  1  'x, y, z'
loop_
 _atom_site_type_symbol
 _atom_site_label
 _atom_site_symmetry_multiplicity
 _atom_site_fract_x
 _atom_site_fract_y
 _atom_site_fract_z
 _atom_site_occupancy
  Li  Li0  1  0.50278900  0.00000000  0.50000000  1
  Li  Li1  1  0.49721100  0.00000000  0.00000000  1
  Li  Li2  1  0.00278900  0.50000000  0.50000000  1
  Li  Li3  1  0.99721100  0.50000000  0.00000000  1
  Sb  Sb4  1  0.13566100  0.00000000  0.00000000  1
  Sb  Sb5  1  0.50000000  0.79871300  0.25000000  1
  Sb  Sb6  1  0.50000000  0.73750100  0.75000000  1
  Sb  Sb7  1  0.50000000  0.20128700  0.75000000  1
  Sb  Sb8  1  0.50000000  0.26249900  0.25000000  1
  Sb  Sb9  1  0.86433900  0.00000000  0.50000000  1
  Sb  Sb10  1  0.63566100  0.50000000  0.00000000  1
  Sb  Sb11  1  0.00000000  0.29871300  0.25000000  1
  Sb  Sb12  1  0.00000000  0.23750100  0.75000000  1
  Sb  Sb13  1  0.00000000  0.70128700  0.75000000  1
  Sb  Sb14  1  0.00000000  0.76249900  0.25000000  1
  Sb  Sb15  1  0.36433900  0.50000000  0.50000000  1
  P  P16  1  0.23366350  0.13489950  0.32292500  1
  P  P17  1  0.23366350  0.86510050  0.67707500  1
  P  P18  1  0.24336200  0.94730700  0.22847900  1
  P  P19  1  0.24336200  0.05269300  0.77152100  1
  P  P20  1  0.43494450  0.70893650  0.01267100  1
  P  P21  1  0.43494450  0.29106350  0.98732900  1
  P  P22  1  0.56505550  0.70893650  0.48732900  1
  P  P23  1  0.56505550  0.29106350  0.51267100  1
  P  P24  1  0.75663800  0.94730700  0.27152100  1
  P  P25  1  0.75663800  0.05269300  0.72847900  1
  P  P26  1  0.76633650  0.86510050  0.82292500  1
  P  P27  1  0.76633650  0.13489950  0.17707500  1
  P  P28  1  0.73366350  0.63489950  0.32292500  1
  P  P29  1  0.73366350  0.36510050  0.67707500  1
  P  P30  1  0.74336200  0.44730700  0.22847900  1
  P  P31  1  0.74336200  0.55269300  0.77152100  1
  P  P32  1  0.93494450  0.20893650  0.01267100  1
  P  P33  1  0.93494450  0.79106350  0.98732900  1
  P  P34  1  0.06505550  0.20893650  0.48732900  1
  P  P35  1  0.06505550  0.79106350  0.51267100  1
  P  P36  1  0.25663800  0.44730700  0.27152100  1
  P  P37  1  0.25663800  0.55269300  0.72847900  1
  P  P38  1  0.26633650  0.36510050  0.82292500  1
  P  P39  1  0.26633650  0.63489950  0.17707500  1
  O  O40  1  0.18582200  0.97478300  0.68975700  1
  O  O41  1  0.18582200  0.02521700  0.31024300  1
  O  O42  1  0.19165600  0.84013700  0.56072800  1
  O  O43  1  0.19165600  0.15986300  0.43927200  1
  O  O44  1  0.28006700  0.99978200  0.87574000  1
  O  O45  1  0.28006700  0.00021800  0.12426000  1
  O  O46  1  0.33452750  0.30567450  0.74376800  1
  O  O47  1  0.33452750  0.69432550  0.25623200  1
  O  O48  1  0.35689550  0.90859050  0.28541000  1
  O  O49  1  0.35689550  0.09140950  0.71459000  1
  O  O50  1  0.86388700  0.12059200  0.70237100  1
  O  O51  1  0.86388700  0.87940800  0.29762900  1
  O  O52  1  0.37487200  0.13679600  0.32250900  1
  O  O53  1  0.37487200  0.86320400  0.67749100  1
  O  O54  1  0.39928850  0.27633050  0.10047900  1
  O  O55  1  0.39928850  0.72366950  0.89952100  1
  O  O56  1  0.46121650  0.36592550  0.53089700  1
  O  O57  1  0.46121650  0.63407450  0.46910300  1
  O  O58  1  0.46053400  0.19669800  0.92927200  1
  O  O59  1  0.46053400  0.80330200  0.07072800  1
  O  O60  1  0.53946600  0.19669800  0.57072800  1
  O  O61  1  0.53946600  0.80330200  0.42927200  1
  O  O62  1  0.53878350  0.63407450  0.03089700  1
  O  O63  1  0.53878350  0.36592550  0.96910300  1
  O  O64  1  0.60071150  0.72366950  0.60047900  1
  O  O65  1  0.60071150  0.27633050  0.39952100  1
  O  O66  1  0.62512800  0.86320400  0.82250900  1
  O  O67  1  0.62512800  0.13679600  0.17749100  1
  O  O68  1  0.13611300  0.12059200  0.79762900  1
  O  O69  1  0.13611300  0.87940800  0.20237100  1
  O  O70  1  0.64310450  0.09140950  0.78541000  1
  O  O71  1  0.64310450  0.90859050  0.21459000  1
  O  O72  1  0.66547250  0.69432550  0.24376800  1
  O  O73  1  0.66547250  0.30567450  0.75623200  1
  O  O74  1  0.71993300  0.99978200  0.62426000  1
  O  O75  1  0.71993300  0.00021800  0.37574000  1
  O  O76  1  0.80834400  0.15986300  0.06072800  1
  O  O77  1  0.80834400  0.84013700  0.93927200  1
  O  O78  1  0.81417800  0.97478300  0.81024300  1
  O  O79  1  0.81417800  0.02521700  0.18975700  1
  O  O80  1  0.68582200  0.47478300  0.68975700  1
  O  O81  1  0.68582200  0.52521700  0.31024300  1
  O  O82  1  0.69165600  0.34013700  0.56072800  1
  O  O83  1  0.69165600  0.65986300  0.43927200  1
  O  O84  1  0.78006700  0.49978200  0.87574000  1
  O  O85  1  0.78006700  0.50021800  0.12426000  1
  O  O86  1  0.83452750  0.80567450  0.74376800  1
  O  O87  1  0.83452750  0.19432550  0.25623200  1
  O  O88  1  0.85689550  0.40859050  0.28541000  1
  O  O89  1  0.85689550  0.59140950  0.71459000  1
  O  O90  1  0.36388700  0.62059200  0.70237100  1
  O  O91  1  0.36388700  0.37940800  0.29762900  1
  O  O92  1  0.87487200  0.63679600  0.32250900  1
  O  O93  1  0.87487200  0.36320400  0.67749100  1
  O  O94  1  0.89928850  0.77633050  0.10047900  1
  O  O95  1  0.89928850  0.22366950  0.89952100  1
  O  O96  1  0.96121650  0.86592550  0.53089700  1
  O  O97  1  0.96121650  0.13407450  0.46910300  1
  O  O98  1  0.96053400  0.69669800  0.92927200  1
  O  O99  1  0.96053400  0.30330200  0.07072800  1
  O  O100  1  0.03946600  0.69669800  0.57072800  1
  O  O101  1  0.03946600  0.30330200  0.42927200  1
  O  O102  1  0.03878350  0.13407450  0.03089700  1
  O  O103  1  0.03878350  0.86592550  0.96910300  1
  O  O104  1  0.10071150  0.22366950  0.60047900  1
  O  O105  1  0.10071150  0.77633050  0.39952100  1
  O  O106  1  0.12512800  0.36320400  0.82250900  1
  O  O107  1  0.12512800  0.63679600  0.17749100  1
  O  O108  1  0.63611300  0.62059200  0.79762900  1
  O  O109  1  0.63611300  0.37940800  0.20237100  1
  O  O110  1  0.14310450  0.59140950  0.78541000  1
  O  O111  1  0.14310450  0.40859050  0.21459000  1
  O  O112  1  0.16547250  0.19432550  0.24376800  1
  O  O113  1  0.16547250  0.80567450  0.75623200  1
  O  O114  1  0.21993300  0.49978200  0.62426000  1
  O  O115  1  0.21993300  0.50021800  0.37574000  1
  O  O116  1  0.30834400  0.65986300  0.06072800  1
  O  O117  1  0.30834400  0.34013700  0.93927200  1
  O  O118  1  0.31417800  0.47478300  0.81024300  1
  O  O119  1  0.31417800  0.52521700  0.18975700  1
