# generated using pymatgen
data_La2Th5O13
_symmetry_space_group_name_H-M   'P 1'
_cell_length_a   3.97817583
_cell_length_b   3.97817583
_cell_length_c   68.93917320
_cell_angle_alpha   90.00000000
_cell_angle_beta   90.00000000
_cell_angle_gamma   120.00000000
_symmetry_Int_Tables_number   1
_chemical_formula_structural   La2Th5O13
_chemical_formula_sum   'La6 Th15 O39'
_cell_volume   944.85388138
_cell_formula_units_Z   3
loop_
 _symmetry_equiv_pos_site_id
 _symmetry_equiv_pos_as_xyz
  1  'x, y, z'
loop_
 _atom_site_type_symbol
 _atom_site_label
 _atom_site_symmetry_multiplicity
 _atom_site_fract_x
 _atom_site_fract_y
 _atom_site_fract_z
 _atom_site_occupancy
  La  La0  1  0.00000000  0.00000000  0.00127300  1
  La  La1  1  0.00000000  0.00000000  0.28340600  1
  La  La2  1  0.66666667  0.33333333  0.33460633  1
  La  La3  1  0.66666667  0.33333333  0.61673933  1
  La  La4  1  0.33333333  0.66666667  0.66793967  1
  La  La5  1  0.33333333  0.66666667  0.95007267  1
  Th  Th6  1  0.33333333  0.66666667  0.23791667  1
  Th  Th7  1  0.66666667  0.33333333  0.19084233  1
  Th  Th8  1  0.00000000  0.00000000  0.14340200  1
  Th  Th9  1  0.33333333  0.66666667  0.09582667  1
  Th  Th10  1  0.66666667  0.33333333  0.04863233  1
  Th  Th11  1  0.00000000  0.00000000  0.57125000  1
  Th  Th12  1  0.33333333  0.66666667  0.52417567  1
  Th  Th13  1  0.66666667  0.33333333  0.47673533  1
  Th  Th14  1  0.00000000  0.00000000  0.42916000  1
  Th  Th15  1  0.33333333  0.66666667  0.38196567  1
  Th  Th16  1  0.66666667  0.33333333  0.90458333  1
  Th  Th17  1  0.00000000  0.00000000  0.85750900  1
  Th  Th18  1  0.33333333  0.66666667  0.81006867  1
  Th  Th19  1  0.66666667  0.33333333  0.76249333  1
  Th  Th20  1  0.00000000  0.00000000  0.71529900  1
  O  O21  1  0.66666667  0.33333333  0.30243133  1
  O  O22  1  0.33333333  0.66666667  0.27254667  1
  O  O23  1  0.00000000  0.00000000  0.24867500  1
  O  O24  1  0.33333333  0.66666667  0.20195567  1
  O  O25  1  0.66666667  0.33333333  0.22550333  1
  O  O26  1  0.66666667  0.33333333  0.15454833  1
  O  O27  1  0.00000000  0.00000000  0.17829000  1
  O  O28  1  0.33333333  0.66666667  0.13075367  1
  O  O29  1  0.00000000  0.00000000  0.10696200  1
  O  O30  1  0.66666667  0.33333333  0.08313033  1
  O  O31  1  0.00000000  0.00000000  0.03683400  1
  O  O32  1  0.66666667  0.33333333  0.00925433  1
  O  O33  1  0.33333333  0.66666667  0.05972167  1
  O  O34  1  0.33333333  0.66666667  0.63576467  1
  O  O35  1  0.00000000  0.00000000  0.60588000  1
  O  O36  1  0.66666667  0.33333333  0.58200833  1
  O  O37  1  0.00000000  0.00000000  0.53528900  1
  O  O38  1  0.33333333  0.66666667  0.55883667  1
  O  O39  1  0.33333333  0.66666667  0.48788167  1
  O  O40  1  0.66666667  0.33333333  0.51162333  1
  O  O41  1  0.00000000  0.00000000  0.46408700  1
  O  O42  1  0.66666667  0.33333333  0.44029533  1
  O  O43  1  0.33333333  0.66666667  0.41646367  1
  O  O44  1  0.66666667  0.33333333  0.37016733  1
  O  O45  1  0.33333333  0.66666667  0.34258767  1
  O  O46  1  0.00000000  0.00000000  0.39305500  1
  O  O47  1  0.00000000  0.00000000  0.96909800  1
  O  O48  1  0.66666667  0.33333333  0.93921333  1
  O  O49  1  0.33333333  0.66666667  0.91534167  1
  O  O50  1  0.66666667  0.33333333  0.86862233  1
  O  O51  1  0.00000000  0.00000000  0.89217000  1
  O  O52  1  0.00000000  0.00000000  0.82121500  1
  O  O53  1  0.33333333  0.66666667  0.84495667  1
  O  O54  1  0.66666667  0.33333333  0.79742033  1
  O  O55  1  0.33333333  0.66666667  0.77362867  1
  O  O56  1  0.00000000  0.00000000  0.74979700  1
  O  O57  1  0.33333333  0.66666667  0.70350067  1
  O  O58  1  0.00000000  0.00000000  0.67592100  1
  O  O59  1  0.66666667  0.33333333  0.72638833  1
