# generated using pymatgen
data_Ca2Ti6N2O11
_symmetry_space_group_name_H-M   'P 1'
_cell_length_a   14.92153800
_cell_length_b   3.78534200
_cell_length_c   9.31610780
_cell_angle_alpha   90.00000000
_cell_angle_beta   98.61003083
_cell_angle_gamma   90.00000000
_symmetry_Int_Tables_number   1
_chemical_formula_structural   Ca2Ti6N2O11
_chemical_formula_sum   'Ca4 Ti12 N4 O22'
_cell_volume   520.27266826
_cell_formula_units_Z   2
loop_
 _symmetry_equiv_pos_site_id
 _symmetry_equiv_pos_as_xyz
  1  'x, y, z'
loop_
 _atom_site_type_symbol
 _atom_site_label
 _atom_site_symmetry_multiplicity
 _atom_site_fract_x
 _atom_site_fract_y
 _atom_site_fract_z
 _atom_site_occupancy
  Ca  Ca0  1  0.53851900  0.00000000  0.75619600  1
  Ca  Ca1  1  0.94890400  0.50000000  0.24641900  1
  Ca  Ca2  1  0.03851900  0.50000000  0.75619600  1
  Ca  Ca3  1  0.44890400  0.00000000  0.24641900  1
  Ti  Ti4  1  0.61924300  0.50000000  0.09445900  1
  Ti  Ti5  1  0.65951800  0.50000000  0.42354200  1
  Ti  Ti6  1  0.72438700  0.50000000  0.75900600  1
  Ti  Ti7  1  0.76653800  0.00000000  0.24282800  1
  Ti  Ti8  1  0.83400000  0.00000000  0.55904500  1
  Ti  Ti9  1  0.87838000  0.00000000  0.91078800  1
  Ti  Ti10  1  0.11924300  0.00000000  0.09445900  1
  Ti  Ti11  1  0.15951800  0.00000000  0.42354200  1
  Ti  Ti12  1  0.22438700  0.00000000  0.75900600  1
  Ti  Ti13  1  0.26653800  0.50000000  0.24282800  1
  Ti  Ti14  1  0.33400000  0.50000000  0.55904500  1
  Ti  Ti15  1  0.37838000  0.50000000  0.91078800  1
  N  N16  1  0.72826200  0.50000000  0.24786100  1
  N  N17  1  0.87425200  0.00000000  0.38369800  1
  N  N18  1  0.22826200  0.00000000  0.24786100  1
  N  N19  1  0.37425200  0.50000000  0.38369800  1
  O  O20  1  0.55414900  0.50000000  0.29440800  1
  O  O21  1  0.61863700  0.50000000  0.61638000  1
  O  O22  1  0.65029200  0.50000000  0.90011300  1
  O  O23  1  0.62662900  0.00000000  0.10774900  1
  O  O24  1  0.69348300  0.00000000  0.43436000  1
  O  O25  1  0.75149600  0.00000000  0.76076700  1
  O  O26  1  0.79370100  0.50000000  0.57458800  1
  O  O27  1  0.85608600  0.50000000  0.87681000  1
  O  O28  1  0.83303700  0.00000000  0.08877400  1
  O  O29  1  0.93502700  0.00000000  0.70842300  1
  O  O30  1  0.99291200  0.00000000  0.00351400  1
  O  O31  1  0.05414900  0.00000000  0.29440800  1
  O  O32  1  0.11863700  0.00000000  0.61638000  1
  O  O33  1  0.15029200  0.00000000  0.90011300  1
  O  O34  1  0.12662900  0.50000000  0.10774900  1
  O  O35  1  0.19348300  0.50000000  0.43436000  1
  O  O36  1  0.25149600  0.50000000  0.76076700  1
  O  O37  1  0.29370100  0.00000000  0.57458800  1
  O  O38  1  0.35608600  0.00000000  0.87681000  1
  O  O39  1  0.33303700  0.50000000  0.08877400  1
  O  O40  1  0.43502700  0.50000000  0.70842300  1
  O  O41  1  0.49291200  0.50000000  0.00351400  1
