# generated using pymatgen
data_Li4CoNi5O12
_symmetry_space_group_name_H-M   'P 1'
_cell_length_a   5.04386600
_cell_length_b   8.46934400
_cell_length_c   9.99764855
_cell_angle_alpha   90.00000000
_cell_angle_beta   92.28069682
_cell_angle_gamma   90.00000000
_symmetry_Int_Tables_number   1
_chemical_formula_structural   Li4CoNi5O12
_chemical_formula_sum   'Li8 Co2 Ni10 O24'
_cell_volume   426.74360343
_cell_formula_units_Z   2
loop_
 _symmetry_equiv_pos_site_id
 _symmetry_equiv_pos_as_xyz
  1  'x, y, z'
loop_
 _atom_site_type_symbol
 _atom_site_label
 _atom_site_symmetry_multiplicity
 _atom_site_fract_x
 _atom_site_fract_y
 _atom_site_fract_z
 _atom_site_occupancy
  Li  Li0  1  0.39809100  0.73749900  0.24706200  1
  Li  Li1  1  0.60190900  0.73749900  0.75293800  1
  Li  Li2  1  0.39591200  0.26432700  0.24838900  1
  Li  Li3  1  0.60408800  0.26432700  0.75161100  1
  Li  Li4  1  0.89809100  0.23749900  0.24706200  1
  Li  Li5  1  0.10190900  0.23749900  0.75293800  1
  Li  Li6  1  0.89591200  0.76432700  0.24838900  1
  Li  Li7  1  0.10408800  0.76432700  0.75161100  1
  Co  Co8  1  0.50000000  0.49891600  0.00000000  1
  Co  Co9  1  0.00000000  0.99891600  0.00000000  1
  Ni  Ni10  1  0.50000000  0.66862800  0.50000000  1
  Ni  Ni11  1  0.50000000  0.16434700  0.00000000  1
  Ni  Ni12  1  0.50000000  0.83354900  0.00000000  1
  Ni  Ni13  1  0.50000000  0.33839600  0.50000000  1
  Ni  Ni14  1  0.50000000  0.00011900  0.50000000  1
  Ni  Ni15  1  0.00000000  0.16862800  0.50000000  1
  Ni  Ni16  1  0.00000000  0.66434700  0.00000000  1
  Ni  Ni17  1  0.00000000  0.33354900  0.00000000  1
  Ni  Ni18  1  0.00000000  0.83839600  0.50000000  1
  Ni  Ni19  1  0.00000000  0.50011900  0.50000000  1
  O  O20  1  0.35260050  0.66708950  0.89448600  1
  O  O21  1  0.64739950  0.66708950  0.10551400  1
  O  O22  1  0.35706600  0.82243500  0.60912100  1
  O  O23  1  0.32960050  0.17685250  0.60155300  1
  O  O24  1  0.64293400  0.82243500  0.39087900  1
  O  O25  1  0.16361800  0.00390400  0.40434500  1
  O  O26  1  0.67039950  0.17685250  0.39844700  1
  O  O27  1  0.35363050  0.33052850  0.89370900  1
  O  O28  1  0.31886550  0.99899750  0.90559800  1
  O  O29  1  0.64636950  0.33052850  0.10629100  1
  O  O30  1  0.68113450  0.99899750  0.09440200  1
  O  O31  1  0.83638200  0.00390400  0.59565500  1
  O  O32  1  0.85260050  0.16708950  0.89448600  1
  O  O33  1  0.14739950  0.16708950  0.10551400  1
  O  O34  1  0.85706600  0.32243500  0.60912100  1
  O  O35  1  0.82960050  0.67685250  0.60155300  1
  O  O36  1  0.14293400  0.32243500  0.39087900  1
  O  O37  1  0.66361800  0.50390400  0.40434500  1
  O  O38  1  0.17039950  0.67685250  0.39844700  1
  O  O39  1  0.85363050  0.83052850  0.89370900  1
  O  O40  1  0.81886550  0.49899750  0.90559800  1
  O  O41  1  0.14636950  0.83052850  0.10629100  1
  O  O42  1  0.18113450  0.49899750  0.09440200  1
  O  O43  1  0.33638200  0.50390400  0.59565500  1
