# generated using pymatgen
data_TbCeO4
_symmetry_space_group_name_H-M   'P 1'
_cell_length_a   3.81278800
_cell_length_b   5.60429200
_cell_length_c   7.63686918
_cell_angle_alpha   90.00000000
_cell_angle_beta   94.54862644
_cell_angle_gamma   90.00000000
_symmetry_Int_Tables_number   1
_chemical_formula_structural   TbCeO4
_chemical_formula_sum   'Tb2 Ce2 O8'
_cell_volume   162.67047937
_cell_formula_units_Z   2
loop_
 _symmetry_equiv_pos_site_id
 _symmetry_equiv_pos_as_xyz
  1  'x, y, z'
loop_
 _atom_site_type_symbol
 _atom_site_label
 _atom_site_symmetry_multiplicity
 _atom_site_fract_x
 _atom_site_fract_y
 _atom_site_fract_z
 _atom_site_occupancy
  Tb  Tb0  1  0.22626700  0.75000000  0.12656600  1
  Tb  Tb1  1  0.77373300  0.25000000  0.87343400  1
  Ce  Ce2  1  0.73278600  0.25000000  0.37505600  1
  Ce  Ce3  1  0.26721400  0.75000000  0.62494400  1
  O  O4  1  0.72215500  0.00572300  0.11846300  1
  O  O5  1  0.72215500  0.49427700  0.11846300  1
  O  O6  1  0.23579100  0.50232200  0.37454900  1
  O  O7  1  0.23579100  0.99767800  0.37454900  1
  O  O8  1  0.76420900  0.49767800  0.62545100  1
  O  O9  1  0.76420900  0.00232200  0.62545100  1
  O  O10  1  0.27784500  0.99427700  0.88153700  1
  O  O11  1  0.27784500  0.50572300  0.88153700  1
