# generated using pymatgen
data_Li5Cu(PO4)2
_symmetry_space_group_name_H-M   'P 1'
_cell_length_a   5.35645300
_cell_length_b   6.20241800
_cell_length_c   9.95536394
_cell_angle_alpha   90.00000000
_cell_angle_beta   90.17216332
_cell_angle_gamma   90.00000000
_symmetry_Int_Tables_number   1
_chemical_formula_structural   Li5Cu(PO4)2
_chemical_formula_sum   'Li10 Cu2 P4 O16'
_cell_volume   330.74516994
_cell_formula_units_Z   2
loop_
 _symmetry_equiv_pos_site_id
 _symmetry_equiv_pos_as_xyz
  1  'x, y, z'
loop_
 _atom_site_type_symbol
 _atom_site_label
 _atom_site_symmetry_multiplicity
 _atom_site_fract_x
 _atom_site_fract_y
 _atom_site_fract_z
 _atom_site_occupancy
  Li  Li0  1  0.15507500  0.99959800  0.25456600  1
  Li  Li1  1  0.15507500  0.00040200  0.75456600  1
  Li  Li2  1  0.32719900  0.24820200  0.00469400  1
  Li  Li3  1  0.67252300  0.25289400  0.75530900  1
  Li  Li4  1  0.67438200  0.25233300  0.25439900  1
  Li  Li5  1  0.84485600  0.50079400  0.00395400  1
  Li  Li6  1  0.84485600  0.49920600  0.50395400  1
  Li  Li7  1  0.67252300  0.74710600  0.25530900  1
  Li  Li8  1  0.67438200  0.74766700  0.75439900  1
  Li  Li9  1  0.32719900  0.75179800  0.50469400  1
  Cu  Cu10  1  0.33476900  0.24187400  0.50152200  1
  Cu  Cu11  1  0.33476900  0.75812600  0.00152200  1
  P  P12  1  0.82479300  0.00429100  0.00085000  1
  P  P13  1  0.82479300  0.99570900  0.50085000  1
  P  P14  1  0.17148600  0.50130300  0.75036500  1
  P  P15  1  0.17148600  0.49869700  0.25036500  1
  O  O16  1  0.82005600  0.99998000  0.34450700  1
  O  O17  1  0.09906300  0.98486900  0.55386200  1
  O  O18  1  0.82005600  0.00002000  0.84450700  1
  O  O19  1  0.09906300  0.01513100  0.05386200  1
  O  O20  1  0.70348600  0.20719100  0.55694100  1
  O  O21  1  0.68158500  0.20710700  0.05217400  1
  O  O22  1  0.31088400  0.29702600  0.80300400  1
  O  O23  1  0.31365000  0.29009900  0.29583000  1
  O  O24  1  0.16891800  0.49513400  0.09392700  1
  O  O25  1  0.89727400  0.49835500  0.30279600  1
  O  O26  1  0.16891800  0.50486600  0.59392700  1
  O  O27  1  0.89727400  0.50164500  0.80279600  1
  O  O28  1  0.31088400  0.70297400  0.30300400  1
  O  O29  1  0.31365000  0.70990100  0.79583000  1
  O  O30  1  0.68158500  0.79289300  0.55217400  1
  O  O31  1  0.70348600  0.79280900  0.05694100  1
