# generated using pymatgen
data_Fe5P3O13
_symmetry_space_group_name_H-M   'P 1'
_cell_length_a   8.54820900
_cell_length_b   6.32142300
_cell_length_c   9.84760311
_cell_angle_alpha   90.00000000
_cell_angle_beta   94.79263630
_cell_angle_gamma   90.00000000
_symmetry_Int_Tables_number   1
_chemical_formula_structural   Fe5P3O13
_chemical_formula_sum   'Fe10 P6 O26'
_cell_volume   530.27285414
_cell_formula_units_Z   2
loop_
 _symmetry_equiv_pos_site_id
 _symmetry_equiv_pos_as_xyz
  1  'x, y, z'
loop_
 _atom_site_type_symbol
 _atom_site_label
 _atom_site_symmetry_multiplicity
 _atom_site_fract_x
 _atom_site_fract_y
 _atom_site_fract_z
 _atom_site_occupancy
  Fe  Fe0  1  0.11409000  0.00060600  0.76634900  1
  Fe  Fe1  1  0.84582100  0.75000000  0.90886400  1
  Fe  Fe2  1  0.76764800  0.75000000  0.55781000  1
  Fe  Fe3  1  0.58556700  0.75000000  0.11623300  1
  Fe  Fe4  1  0.11409000  0.49939400  0.76634900  1
  Fe  Fe5  1  0.88591000  0.50060600  0.23365100  1
  Fe  Fe6  1  0.41443300  0.25000000  0.88376700  1
  Fe  Fe7  1  0.23235200  0.25000000  0.44219000  1
  Fe  Fe8  1  0.15417900  0.25000000  0.09113600  1
  Fe  Fe9  1  0.88591000  0.99939400  0.23365100  1
  P  P10  1  0.47830100  0.75000000  0.77793100  1
  P  P11  1  0.11009000  0.75000000  0.48026900  1
  P  P12  1  0.18159200  0.75000000  0.08377800  1
  P  P13  1  0.81840800  0.25000000  0.91622200  1
  P  P14  1  0.88991000  0.25000000  0.51973100  1
  P  P15  1  0.52169900  0.25000000  0.22206900  1
  O  O16  1  0.37508200  0.95357100  0.78546200  1
  O  O17  1  0.20828800  0.94570600  0.46183300  1
  O  O18  1  0.11747900  0.95226700  0.15077900  1
  O  O19  1  0.11890600  0.75000000  0.92936200  1
  O  O20  1  0.05077000  0.75000000  0.63143100  1
  O  O21  1  0.59494400  0.75000000  0.91071600  1
  O  O22  1  0.56870700  0.75000000  0.65211000  1
  O  O23  1  0.80843100  0.75000000  0.11132100  1
  O  O24  1  0.95273500  0.75000000  0.38361800  1
  O  O25  1  0.36195400  0.75000000  0.10053300  1
  O  O26  1  0.20828800  0.55429400  0.46183300  1
  O  O27  1  0.37508200  0.54642900  0.78546200  1
  O  O28  1  0.11747900  0.54773300  0.15077900  1
  O  O29  1  0.88252100  0.45226700  0.84922100  1
  O  O30  1  0.62491800  0.45357100  0.21453800  1
  O  O31  1  0.79171200  0.44570600  0.53816700  1
  O  O32  1  0.63804600  0.25000000  0.89946700  1
  O  O33  1  0.04726500  0.25000000  0.61638200  1
  O  O34  1  0.19156900  0.25000000  0.88867900  1
  O  O35  1  0.43129300  0.25000000  0.34789000  1
  O  O36  1  0.40505600  0.25000000  0.08928400  1
  O  O37  1  0.94923000  0.25000000  0.36856900  1
  O  O38  1  0.88109400  0.25000000  0.07063800  1
  O  O39  1  0.88252100  0.04773300  0.84922100  1
  O  O40  1  0.79171200  0.05429400  0.53816700  1
  O  O41  1  0.62491800  0.04642900  0.21453800  1
