# generated using pymatgen
data_Li4CoO3F
_symmetry_space_group_name_H-M   'P 1'
_cell_length_a   5.22501531
_cell_length_b   5.34709058
_cell_length_c   7.75884192
_cell_angle_alpha   109.98201253
_cell_angle_beta   82.91234401
_cell_angle_gamma   113.64963697
_symmetry_Int_Tables_number   1
_chemical_formula_structural   Li4CoO3F
_chemical_formula_sum   'Li8 Co2 O6 F2'
_cell_volume   186.58869692
_cell_formula_units_Z   2
loop_
 _symmetry_equiv_pos_site_id
 _symmetry_equiv_pos_as_xyz
  1  'x, y, z'
loop_
 _atom_site_type_symbol
 _atom_site_label
 _atom_site_symmetry_multiplicity
 _atom_site_fract_x
 _atom_site_fract_y
 _atom_site_fract_z
 _atom_site_occupancy
  Li  Li0  1  0.73979047  0.75867465  0.99382109  1
  Li  Li1  1  0.28374557  0.81533918  0.78070769  1
  Li  Li2  1  0.24316487  0.51142906  0.58336344  1
  Li  Li3  1  0.75414351  0.92680289  0.55803101  1
  Li  Li4  1  0.24479659  0.05284136  0.42707809  1
  Li  Li5  1  0.77045107  0.48676904  0.42168385  1
  Li  Li6  1  0.72632433  0.18576616  0.21431352  1
  Li  Li7  1  0.24712877  0.25263115  0.00028644  1
  Co  Co8  1  0.74070727  0.40829443  0.79412648  1
  Co  Co9  1  0.30491234  0.60265203  0.24249237  1
  O  O10  1  0.83445059  0.16174628  0.98547181  1
  O  O11  1  0.50150715  0.58299638  0.80113459  1
  O  O12  1  0.98384911  0.68883381  0.60698813  1
  O  O13  1  0.45999591  0.83896461  0.37556539  1
  O  O14  1  0.01153185  0.30109758  0.39817230  1
  O  O15  1  0.50105634  0.42605169  0.19284306  1
  F  F16  1  0.50657239  0.18290450  0.62130249  1
  F  F17  1  0.14587188  0.81620621  0.00261625  1
