# generated using pymatgen
data_Fe2OF3
_symmetry_space_group_name_H-M   'P 1'
_cell_length_a   19.58691200
_cell_length_b   6.15777800
_cell_length_c   4.87715722
_cell_angle_alpha   90.00000000
_cell_angle_beta   91.79124113
_cell_angle_gamma   90.00000000
_symmetry_Int_Tables_number   1
_chemical_formula_structural   Fe2OF3
_chemical_formula_sum   'Fe16 O8 F24'
_cell_volume   587.95553875
_cell_formula_units_Z   8
loop_
 _symmetry_equiv_pos_site_id
 _symmetry_equiv_pos_as_xyz
  1  'x, y, z'
loop_
 _atom_site_type_symbol
 _atom_site_label
 _atom_site_symmetry_multiplicity
 _atom_site_fract_x
 _atom_site_fract_y
 _atom_site_fract_z
 _atom_site_occupancy
  Fe  Fe0  1  0.62403550  0.75366550  0.49984100  1
  Fe  Fe1  1  0.87596450  0.25366550  0.50015900  1
  Fe  Fe2  1  0.87596450  0.74633450  0.50015900  1
  Fe  Fe3  1  0.62403550  0.24633450  0.49984100  1
  Fe  Fe4  1  0.00000000  0.50000000  0.00000000  1
  Fe  Fe5  1  0.74039400  0.50000000  0.96691900  1
  Fe  Fe6  1  0.00000000  0.00000000  0.00000000  1
  Fe  Fe7  1  0.75960600  0.00000000  0.03308100  1
  Fe  Fe8  1  0.12403550  0.25366550  0.49984100  1
  Fe  Fe9  1  0.37596450  0.75366550  0.50015900  1
  Fe  Fe10  1  0.37596450  0.24633450  0.50015900  1
  Fe  Fe11  1  0.12403550  0.74633450  0.49984100  1
  Fe  Fe12  1  0.50000000  0.00000000  0.00000000  1
  Fe  Fe13  1  0.24039400  0.00000000  0.96691900  1
  Fe  Fe14  1  0.50000000  0.50000000  0.00000000  1
  Fe  Fe15  1  0.25960600  0.50000000  0.03308100  1
  O  O16  1  0.57926700  0.00000000  0.31823900  1
  O  O17  1  0.83295200  0.00000000  0.33301100  1
  O  O18  1  0.92073300  0.50000000  0.68176100  1
  O  O19  1  0.66704800  0.50000000  0.66698900  1
  O  O20  1  0.07926700  0.50000000  0.31823900  1
  O  O21  1  0.33295200  0.50000000  0.33301100  1
  O  O22  1  0.42073300  0.00000000  0.68176100  1
  O  O23  1  0.16704800  0.00000000  0.66698900  1
  F  F24  1  0.69835250  0.75036550  0.20473400  1
  F  F25  1  0.69835250  0.24963450  0.20473400  1
  F  F26  1  0.94824600  0.24467700  0.20957300  1
  F  F27  1  0.94824600  0.75532300  0.20957300  1
  F  F28  1  0.57376100  0.50000000  0.30139800  1
  F  F29  1  0.82187600  0.50000000  0.29346800  1
  F  F30  1  0.92623900  0.00000000  0.69860200  1
  F  F31  1  0.67812400  0.00000000  0.70653200  1
  F  F32  1  0.80164750  0.25036550  0.79526600  1
  F  F33  1  0.55175400  0.25532300  0.79042700  1
  F  F34  1  0.80164750  0.74963450  0.79526600  1
  F  F35  1  0.55175400  0.74467700  0.79042700  1
  F  F36  1  0.19835250  0.25036550  0.20473400  1
  F  F37  1  0.19835250  0.74963450  0.20473400  1
  F  F38  1  0.44824600  0.74467700  0.20957300  1
  F  F39  1  0.44824600  0.25532300  0.20957300  1
  F  F40  1  0.07376100  0.00000000  0.30139800  1
  F  F41  1  0.32187600  0.00000000  0.29346800  1
  F  F42  1  0.42623900  0.50000000  0.69860200  1
  F  F43  1  0.17812400  0.50000000  0.70653200  1
  F  F44  1  0.30164750  0.75036550  0.79526600  1
  F  F45  1  0.05175400  0.75532300  0.79042700  1
  F  F46  1  0.30164750  0.24963450  0.79526600  1
  F  F47  1  0.05175400  0.24467700  0.79042700  1
