# generated using pymatgen
data_CaFeSn(PO4)3
_symmetry_space_group_name_H-M   'P 1'
_cell_length_a   8.71596017
_cell_length_b   8.71596017
_cell_length_c   22.26899395
_cell_angle_alpha   90.00000000
_cell_angle_beta   90.00000000
_cell_angle_gamma   120.00000000
_symmetry_Int_Tables_number   1
_chemical_formula_structural   CaFeSn(PO4)3
_chemical_formula_sum   'Ca6 Fe6 Sn6 P18 O72'
_cell_volume   1465.08122517
_cell_formula_units_Z   6
loop_
 _symmetry_equiv_pos_site_id
 _symmetry_equiv_pos_as_xyz
  1  'x, y, z'
loop_
 _atom_site_type_symbol
 _atom_site_label
 _atom_site_symmetry_multiplicity
 _atom_site_fract_x
 _atom_site_fract_y
 _atom_site_fract_z
 _atom_site_occupancy
  Ca  Ca0  1  0.00000000  0.00000000  0.00280900  1
  Ca  Ca1  1  0.33333333  0.66666667  0.16947567  1
  Ca  Ca2  1  0.66666667  0.33333333  0.33614233  1
  Ca  Ca3  1  0.00000000  0.00000000  0.50280900  1
  Ca  Ca4  1  0.33333333  0.66666667  0.66947567  1
  Ca  Ca5  1  0.66666667  0.33333333  0.83614233  1
  Fe  Fe6  1  0.33333333  0.66666667  0.31440167  1
  Fe  Fe7  1  0.00000000  0.00000000  0.14773500  1
  Fe  Fe8  1  0.00000000  0.00000000  0.64773500  1
  Fe  Fe9  1  0.66666667  0.33333333  0.48106833  1
  Fe  Fe10  1  0.66666667  0.33333333  0.98106833  1
  Fe  Fe11  1  0.33333333  0.66666667  0.81440167  1
  Sn  Sn12  1  0.66666667  0.33333333  0.18575733  1
  Sn  Sn13  1  0.33333333  0.66666667  0.01909067  1
  Sn  Sn14  1  0.33333333  0.66666667  0.51909067  1
  Sn  Sn15  1  0.00000000  0.00000000  0.35242400  1
  Sn  Sn16  1  0.00000000  0.00000000  0.85242400  1
  Sn  Sn17  1  0.66666667  0.33333333  0.68575733  1
  P  P18  1  0.29083067  0.99695433  0.24872633  1
  P  P19  1  0.00304567  0.29387633  0.24872633  1
  P  P20  1  0.70612367  0.70916933  0.24872633  1
  P  P21  1  0.95749733  0.62720967  0.08205967  1
  P  P22  1  0.66971233  0.04250267  0.08205967  1
  P  P23  1  0.37279033  0.33028767  0.08205967  1
  P  P24  1  0.95749733  0.33028767  0.58205967  1
  P  P25  1  0.66971233  0.62720967  0.58205967  1
  P  P26  1  0.37279033  0.04250267  0.58205967  1
  P  P27  1  0.62416400  0.96054300  0.41539300  1
  P  P28  1  0.33637900  0.37583600  0.41539300  1
  P  P29  1  0.03945700  0.66362100  0.41539300  1
  P  P30  1  0.62416400  0.66362100  0.91539300  1
  P  P31  1  0.33637900  0.96054300  0.91539300  1
  P  P32  1  0.03945700  0.37583600  0.91539300  1
  P  P33  1  0.29083067  0.29387633  0.74872633  1
  P  P34  1  0.00304567  0.70916933  0.74872633  1
  P  P35  1  0.70612367  0.99695433  0.74872633  1
  O  O36  1  0.46560367  0.31776033  0.02604933  1
  O  O37  1  0.85215667  0.53439633  0.02604933  1
  O  O38  1  0.48024033  0.16686067  0.24910967  1
  O  O39  1  0.68223967  0.14784333  0.02604933  1
  O  O40  1  0.18549000  0.98442700  0.19271600  1
  O  O41  1  0.31113233  0.83085867  0.25075167  1
  O  O42  1  0.83313933  0.31337967  0.24910967  1
  O  O43  1  0.16914133  0.48027367  0.25075167  1
  O  O44  1  0.51972633  0.68886767  0.25075167  1
  O  O45  1  0.87703867  0.52452433  0.14104033  1
  O  O46  1  0.97779900  0.81360700  0.08408500  1
  O  O47  1  0.64748567  0.12296133  0.14104033  1
  O  O48  1  0.01557300  0.20106300  0.19271600  1
  O  O49  1  0.68662033  0.51975967  0.24910967  1
  O  O50  1  0.79893700  0.81451000  0.19271600  1
  O  O51  1  0.14690700  0.64671300  0.08244300  1
  O  O52  1  0.49980600  0.85309300  0.08244300  1
  O  O53  1  0.83580800  0.02220100  0.08408500  1
  O  O54  1  0.35328700  0.50019400  0.08244300  1
  O  O55  1  0.47547567  0.35251433  0.14104033  1
  O  O56  1  0.98081900  0.19119100  0.30770700  1
  O  O57  1  0.18639300  0.16419200  0.08408500  1
  O  O58  1  0.80880900  0.78962800  0.30770700  1
  O  O59  1  0.21037200  0.01918100  0.30770700  1
  O  O60  1  0.13227033  0.65109367  0.35938267  1
  O  O61  1  0.51882333  0.86772967  0.35938267  1
  O  O62  1  0.14690700  0.50019400  0.58244300  1
  O  O63  1  0.34890633  0.48117667  0.35938267  1
  O  O64  1  0.85215667  0.31776033  0.52604933  1
  O  O65  1  0.97779900  0.16419200  0.58408500  1
  O  O66  1  0.49980600  0.64671300  0.58244300  1
  O  O67  1  0.83580800  0.81360700  0.58408500  1
  O  O68  1  0.18639300  0.02220100  0.58408500  1
  O  O69  1  0.54370533  0.85785767  0.47437367  1
  O  O70  1  0.64446567  0.14694033  0.41741833  1
  O  O71  1  0.31415233  0.45629467  0.47437367  1
  O  O72  1  0.68223967  0.53439633  0.52604933  1
  O  O73  1  0.35328700  0.85309300  0.58244300  1
  O  O74  1  0.46560367  0.14784333  0.52604933  1
  O  O75  1  0.81357367  0.98004633  0.41577633  1
  O  O76  1  0.16647267  0.18642633  0.41577633  1
  O  O77  1  0.50247467  0.35553433  0.41741833  1
  O  O78  1  0.01995367  0.83352733  0.41577633  1
  O  O79  1  0.14214233  0.68584767  0.47437367  1
  O  O80  1  0.64748567  0.52452433  0.64104033  1
  O  O81  1  0.85305967  0.49752533  0.41741833  1
  O  O82  1  0.47547567  0.12296133  0.64104033  1
  O  O83  1  0.87703867  0.35251433  0.64104033  1
  O  O84  1  0.79893700  0.98442700  0.69271600  1
  O  O85  1  0.18549000  0.20106300  0.69271600  1
  O  O86  1  0.81357367  0.83352733  0.91577633  1
  O  O87  1  0.01557300  0.81451000  0.69271600  1
  O  O88  1  0.51882333  0.65109367  0.85938267  1
  O  O89  1  0.64446567  0.49752533  0.91741833  1
  O  O90  1  0.16647267  0.98004633  0.91577633  1
  O  O91  1  0.50247467  0.14694033  0.91741833  1
  O  O92  1  0.85305967  0.35553433  0.91741833  1
  O  O93  1  0.21037200  0.19119100  0.80770700  1
  O  O94  1  0.31113233  0.48027367  0.75075167  1
  O  O95  1  0.98081900  0.78962800  0.80770700  1
  O  O96  1  0.34890633  0.86772967  0.85938267  1
  O  O97  1  0.01995367  0.18642633  0.91577633  1
  O  O98  1  0.13227033  0.48117667  0.85938267  1
  O  O99  1  0.48024033  0.31337967  0.74910967  1
  O  O100  1  0.83313933  0.51975967  0.74910967  1
  O  O101  1  0.16914133  0.68886767  0.75075167  1
  O  O102  1  0.68662033  0.16686067  0.74910967  1
  O  O103  1  0.80880900  0.01918100  0.80770700  1
  O  O104  1  0.31415233  0.85785767  0.97437367  1
  O  O105  1  0.51972633  0.83085867  0.75075167  1
  O  O106  1  0.14214233  0.45629467  0.97437367  1
  O  O107  1  0.54370533  0.68584767  0.97437367  1
