# generated using pymatgen
data_Li4V3Co2Sb3O16
_symmetry_space_group_name_H-M   'P 1'
_cell_length_a   10.64712400
_cell_length_b   6.13860200
_cell_length_c   9.86087804
_cell_angle_alpha   90.00000000
_cell_angle_beta   90.51221221
_cell_angle_gamma   90.00000000
_symmetry_Int_Tables_number   1
_chemical_formula_structural   Li4V3Co2Sb3O16
_chemical_formula_sum   'Li8 V6 Co4 Sb6 O32'
_cell_volume   644.46601636
_cell_formula_units_Z   2
loop_
 _symmetry_equiv_pos_site_id
 _symmetry_equiv_pos_as_xyz
  1  'x, y, z'
loop_
 _atom_site_type_symbol
 _atom_site_label
 _atom_site_symmetry_multiplicity
 _atom_site_fract_x
 _atom_site_fract_y
 _atom_site_fract_z
 _atom_site_occupancy
  Li  Li0  1  0.66454300  0.00000000  0.87752100  1
  Li  Li1  1  0.98933500  0.00000000  0.99086300  1
  Li  Li2  1  0.99231000  0.00000000  0.50482700  1
  Li  Li3  1  0.82794100  0.50000000  0.39999300  1
  Li  Li4  1  0.16454300  0.50000000  0.87752100  1
  Li  Li5  1  0.48933500  0.50000000  0.99086300  1
  Li  Li6  1  0.49231000  0.50000000  0.50482700  1
  Li  Li7  1  0.32794100  0.00000000  0.39999300  1
  V  V8  1  0.83188300  0.00000000  0.21620300  1
  V  V9  1  0.91732100  0.74614600  0.71481400  1
  V  V10  1  0.91732100  0.25385400  0.71481400  1
  V  V11  1  0.33188300  0.50000000  0.21620300  1
  V  V12  1  0.41732100  0.24614600  0.71481400  1
  V  V13  1  0.41732100  0.75385400  0.71481400  1
  Co  Co14  1  0.67292500  0.00000000  0.51913100  1
  Co  Co15  1  0.84360100  0.50000000  0.97612200  1
  Co  Co16  1  0.17292500  0.50000000  0.51913100  1
  Co  Co17  1  0.34360100  0.00000000  0.97612200  1
  Sb  Sb18  1  0.58479350  0.24698550  0.21526600  1
  Sb  Sb19  1  0.58479350  0.75301450  0.21526600  1
  Sb  Sb20  1  0.67065000  0.50000000  0.71513300  1
  Sb  Sb21  1  0.08479350  0.74698550  0.21526600  1
  Sb  Sb22  1  0.08479350  0.25301450  0.21526600  1
  Sb  Sb23  1  0.17065000  0.00000000  0.71513300  1
  O  O24  1  0.58077950  0.26545850  0.60159200  1
  O  O25  1  0.51408700  0.00000000  0.33073200  1
  O  O26  1  0.66184100  0.00000000  0.10131500  1
  O  O27  1  0.50493200  0.50000000  0.32058300  1
  O  O28  1  0.50703200  0.50000000  0.81315400  1
  O  O29  1  0.58077950  0.73454150  0.60159200  1
  O  O30  1  0.74064600  0.22789700  0.32528900  1
  O  O31  1  0.74064600  0.77210300  0.32528900  1
  O  O32  1  0.65424400  0.50000000  0.10198500  1
  O  O33  1  0.84283100  0.00000000  0.60783900  1
  O  O34  1  0.75788250  0.72313850  0.83496300  1
  O  O35  1  0.75788250  0.27686150  0.83496300  1
  O  O36  1  0.82771400  0.50000000  0.60197100  1
  O  O37  1  0.92464850  0.76565750  0.10763600  1
  O  O38  1  0.98260100  0.50000000  0.83132400  1
  O  O39  1  0.92464850  0.23434250  0.10763600  1
  O  O40  1  0.08077950  0.76545850  0.60159200  1
  O  O41  1  0.01408700  0.50000000  0.33073200  1
  O  O42  1  0.16184100  0.50000000  0.10131500  1
  O  O43  1  0.00493200  0.00000000  0.32058300  1
  O  O44  1  0.00703200  0.00000000  0.81315400  1
  O  O45  1  0.08077950  0.23454150  0.60159200  1
  O  O46  1  0.24064600  0.72789700  0.32528900  1
  O  O47  1  0.24064600  0.27210300  0.32528900  1
  O  O48  1  0.15424400  0.00000000  0.10198500  1
  O  O49  1  0.34283100  0.50000000  0.60783900  1
  O  O50  1  0.25788250  0.22313850  0.83496300  1
  O  O51  1  0.25788250  0.77686150  0.83496300  1
  O  O52  1  0.32771400  0.00000000  0.60197100  1
  O  O53  1  0.42464850  0.26565750  0.10763600  1
  O  O54  1  0.48260100  0.00000000  0.83132400  1
  O  O55  1  0.42464850  0.73434250  0.10763600  1
