# generated using pymatgen
data_NaCu(PO3)4
_symmetry_space_group_name_H-M   'P 1'
_cell_length_a   9.46198600
_cell_length_b   13.10408600
_cell_length_c   8.01392429
_cell_angle_alpha   90.00000000
_cell_angle_beta   95.30435917
_cell_angle_gamma   90.00000000
_symmetry_Int_Tables_number   1
_chemical_formula_structural   NaCu(PO3)4
_chemical_formula_sum   'Na4 Cu4 P16 O48'
_cell_volume   989.39676031
_cell_formula_units_Z   4
loop_
 _symmetry_equiv_pos_site_id
 _symmetry_equiv_pos_as_xyz
  1  'x, y, z'
loop_
 _atom_site_type_symbol
 _atom_site_label
 _atom_site_symmetry_multiplicity
 _atom_site_fract_x
 _atom_site_fract_y
 _atom_site_fract_z
 _atom_site_occupancy
  Na  Na0  1  0.66611650  0.85593750  0.19618300  1
  Na  Na1  1  0.66611650  0.14406250  0.69618300  1
  Na  Na2  1  0.16611650  0.35593750  0.19618300  1
  Na  Na3  1  0.16611650  0.64406250  0.69618300  1
  Cu  Cu4  1  0.50596600  0.63744700  0.75639000  1
  Cu  Cu5  1  0.50596600  0.36255300  0.25639000  1
  Cu  Cu6  1  0.00596600  0.13744700  0.75639000  1
  Cu  Cu7  1  0.00596600  0.86255300  0.25639000  1
  P  P8  1  0.13594500  0.92415700  0.67790500  1
  P  P9  1  0.40026050  0.84665150  0.87495800  1
  P  P10  1  0.60071150  0.84458450  0.62114900  1
  P  P11  1  0.13594500  0.07584300  0.17790500  1
  P  P12  1  0.86302250  0.92380550  0.82504100  1
  P  P13  1  0.40026050  0.15334850  0.37495800  1
  P  P14  1  0.60071150  0.15541550  0.12114900  1
  P  P15  1  0.86302250  0.07619450  0.32504100  1
  P  P16  1  0.63594500  0.42415700  0.67790500  1
  P  P17  1  0.90026050  0.34665150  0.87495800  1
  P  P18  1  0.10071150  0.34458450  0.62114900  1
  P  P19  1  0.63594500  0.57584300  0.17790500  1
  P  P20  1  0.36302250  0.42380550  0.82504100  1
  P  P21  1  0.90026050  0.65334850  0.37495800  1
  P  P22  1  0.10071150  0.65541550  0.12114900  1
  P  P23  1  0.36302250  0.57619450  0.32504100  1
  O  O24  1  0.50033900  0.62613600  0.25566900  1
  O  O25  1  0.37097150  0.73550050  0.81287200  1
  O  O26  1  0.16772450  0.86944550  0.52394900  1
  O  O27  1  0.25310550  0.90668050  0.83433600  1
  O  O28  1  0.11133400  0.96080000  0.15335400  1
  O  O29  1  0.63043100  0.73468200  0.68436500  1
  O  O30  1  0.11133400  0.03920000  0.65335400  1
  O  O31  1  0.45452000  0.86258300  0.05055400  1
  O  O32  1  0.49850250  0.89939650  0.74477100  1
  O  O33  1  0.55725950  0.86249450  0.44253500  1
  O  O34  1  0.25310550  0.09331950  0.33433600  1
  O  O35  1  0.16772450  0.13055450  0.02394900  1
  O  O36  1  0.82501500  0.87420300  0.98095400  1
  O  O37  1  0.74623450  0.90778050  0.66888700  1
  O  O38  1  0.45452000  0.13741700  0.55055400  1
  O  O39  1  0.49850250  0.10060350  0.24477100  1
  O  O40  1  0.55725950  0.13750550  0.94253500  1
  O  O41  1  0.88478250  0.95955550  0.34005200  1
  O  O42  1  0.37097150  0.26449950  0.31287200  1
  O  O43  1  0.88478250  0.04044450  0.84005200  1
  O  O44  1  0.74623450  0.09221950  0.16888700  1
  O  O45  1  0.82501500  0.12579700  0.48095400  1
  O  O46  1  0.63043100  0.26531800  0.18436500  1
  O  O47  1  0.50033900  0.37386400  0.75566900  1
  O  O48  1  0.00033900  0.12613600  0.25566900  1
  O  O49  1  0.87097150  0.23550050  0.81287200  1
  O  O50  1  0.66772450  0.36944550  0.52394900  1
  O  O51  1  0.75310550  0.40668050  0.83433600  1
  O  O52  1  0.61133400  0.46080000  0.15335400  1
  O  O53  1  0.13043100  0.23468200  0.68436500  1
  O  O54  1  0.61133400  0.53920000  0.65335400  1
  O  O55  1  0.95452000  0.36258300  0.05055400  1
  O  O56  1  0.99850250  0.39939650  0.74477100  1
  O  O57  1  0.05725950  0.36249450  0.44253500  1
  O  O58  1  0.75310550  0.59331950  0.33433600  1
  O  O59  1  0.66772450  0.63055450  0.02394900  1
  O  O60  1  0.32501500  0.37420300  0.98095400  1
  O  O61  1  0.24623450  0.40778050  0.66888700  1
  O  O62  1  0.95452000  0.63741700  0.55055400  1
  O  O63  1  0.99850250  0.60060350  0.24477100  1
  O  O64  1  0.05725950  0.63750550  0.94253500  1
  O  O65  1  0.38478250  0.45955550  0.34005200  1
  O  O66  1  0.87097150  0.76449950  0.31287200  1
  O  O67  1  0.38478250  0.54044450  0.84005200  1
  O  O68  1  0.24623450  0.59221950  0.16888700  1
  O  O69  1  0.32501500  0.62579700  0.48095400  1
  O  O70  1  0.13043100  0.76531800  0.18436500  1
  O  O71  1  0.00033900  0.87386400  0.75566900  1
