# generated using pymatgen
data_Li3CuF5
_symmetry_space_group_name_H-M   'P 1'
_cell_length_a   10.84796600
_cell_length_b   5.97419800
_cell_length_c   6.81891336
_cell_angle_alpha   90.00000000
_cell_angle_beta   107.75009491
_cell_angle_gamma   90.00000000
_symmetry_Int_Tables_number   1
_chemical_formula_structural   Li3CuF5
_chemical_formula_sum   'Li12 Cu4 F20'
_cell_volume   420.88198887
_cell_formula_units_Z   4
loop_
 _symmetry_equiv_pos_site_id
 _symmetry_equiv_pos_as_xyz
  1  'x, y, z'
loop_
 _atom_site_type_symbol
 _atom_site_label
 _atom_site_symmetry_multiplicity
 _atom_site_fract_x
 _atom_site_fract_y
 _atom_site_fract_z
 _atom_site_occupancy
  Li  Li0  1  0.75005450  0.19868250  0.32758200  1
  Li  Li1  1  0.75005450  0.80131750  0.82758200  1
  Li  Li2  1  0.00000000  0.48889100  0.25000000  1
  Li  Li3  1  0.00000000  0.51110900  0.75000000  1
  Li  Li4  1  0.74994550  0.69868250  0.17241800  1
  Li  Li5  1  0.74994550  0.30131750  0.67241800  1
  Li  Li6  1  0.25005450  0.69868250  0.32758200  1
  Li  Li7  1  0.25005450  0.30131750  0.82758200  1
  Li  Li8  1  0.50000000  0.98889100  0.25000000  1
  Li  Li9  1  0.50000000  0.01110900  0.75000000  1
  Li  Li10  1  0.24994550  0.19868250  0.17241800  1
  Li  Li11  1  0.24994550  0.80131750  0.67241800  1
  Cu  Cu12  1  0.00000000  0.00000000  0.00000000  1
  Cu  Cu13  1  0.00000000  0.00000000  0.50000000  1
  Cu  Cu14  1  0.50000000  0.50000000  0.00000000  1
  Cu  Cu15  1  0.50000000  0.50000000  0.50000000  1
  F  F16  1  0.67305750  0.41157250  0.13143700  1
  F  F17  1  0.61496750  0.15580650  0.45686100  1
  F  F18  1  0.00000000  0.83061800  0.75000000  1
  F  F19  1  0.61496750  0.84419350  0.95686100  1
  F  F20  1  0.67305750  0.58842750  0.63143700  1
  F  F21  1  0.82694250  0.91157250  0.36856300  1
  F  F22  1  0.88503250  0.65580650  0.04313900  1
  F  F23  1  0.00000000  0.16938200  0.25000000  1
  F  F24  1  0.88503250  0.34419350  0.54313900  1
  F  F25  1  0.82694250  0.08842750  0.86856300  1
  F  F26  1  0.17305750  0.91157250  0.13143700  1
  F  F27  1  0.11496750  0.65580650  0.45686100  1
  F  F28  1  0.50000000  0.33061800  0.75000000  1
  F  F29  1  0.11496750  0.34419350  0.95686100  1
  F  F30  1  0.17305750  0.08842750  0.63143700  1
  F  F31  1  0.32694250  0.41157250  0.36856300  1
  F  F32  1  0.38503250  0.15580650  0.04313900  1
  F  F33  1  0.50000000  0.66938200  0.25000000  1
  F  F34  1  0.38503250  0.84419350  0.54313900  1
  F  F35  1  0.32694250  0.58842750  0.86856300  1
