# generated using pymatgen
data_Ta7InO19
_symmetry_space_group_name_H-M   'P 1'
_cell_length_a   6.25056158
_cell_length_b   6.25056158
_cell_length_c   20.20885300
_cell_angle_alpha   90.00000000
_cell_angle_beta   90.00000000
_cell_angle_gamma   120.00000000
_symmetry_Int_Tables_number   1
_chemical_formula_structural   Ta7InO19
_chemical_formula_sum   'Ta14 In2 O38'
_cell_volume   683.77052114
_cell_formula_units_Z   2
loop_
 _symmetry_equiv_pos_site_id
 _symmetry_equiv_pos_as_xyz
  1  'x, y, z'
loop_
 _atom_site_type_symbol
 _atom_site_label
 _atom_site_symmetry_multiplicity
 _atom_site_fract_x
 _atom_site_fract_y
 _atom_site_fract_z
 _atom_site_occupancy
  Ta  Ta0  1  0.69380867  0.02849633  0.15560700  1
  Ta  Ta1  1  0.69380867  0.02849633  0.34439300  1
  Ta  Ta2  1  0.97150367  0.30619133  0.65560700  1
  Ta  Ta3  1  0.97150367  0.30619133  0.84439300  1
  Ta  Ta4  1  0.69380867  0.66531233  0.84439300  1
  Ta  Ta5  1  0.69380867  0.66531233  0.65560700  1
  Ta  Ta6  1  0.00000000  0.00000000  0.50000000  1
  Ta  Ta7  1  0.00000000  0.00000000  0.00000000  1
  Ta  Ta8  1  0.97150367  0.66531233  0.15560700  1
  Ta  Ta9  1  0.97150367  0.66531233  0.34439300  1
  Ta  Ta10  1  0.33468767  0.30619133  0.15560700  1
  Ta  Ta11  1  0.33468767  0.30619133  0.34439300  1
  Ta  Ta12  1  0.33468767  0.02849633  0.84439300  1
  Ta  Ta13  1  0.33468767  0.02849633  0.65560700  1
  In  In14  1  0.66666667  0.33333333  0.00000000  1
  In  In15  1  0.66666667  0.33333333  0.50000000  1
  O  O16  1  0.33274367  0.41954833  0.65291300  1
  O  O17  1  0.33274367  0.41954833  0.84708700  1
  O  O18  1  0.37238767  0.29195133  0.25000000  1
  O  O19  1  0.58045167  0.66725633  0.34708700  1
  O  O20  1  0.58045167  0.66725633  0.15291300  1
  O  O21  1  0.37238767  0.08043633  0.75000000  1
  O  O22  1  0.33274367  0.91319533  0.15291300  1
  O  O23  1  0.33274367  0.91319533  0.34708700  1
  O  O24  1  0.70804867  0.62761233  0.75000000  1
  O  O25  1  0.66666667  0.33333333  0.13487100  1
  O  O26  1  0.66666667  0.33333333  0.86512900  1
  O  O27  1  0.66666667  0.33333333  0.63487100  1
  O  O28  1  0.66666667  0.33333333  0.36512900  1
  O  O29  1  0.91956367  0.62761233  0.25000000  1
  O  O30  1  0.58045167  0.91319533  0.65291300  1
  O  O31  1  0.58045167  0.91319533  0.84708700  1
  O  O32  1  0.70804867  0.08043633  0.25000000  1
  O  O33  1  0.76121167  0.05762333  0.05498700  1
  O  O34  1  0.76121167  0.05762333  0.44501300  1
  O  O35  1  0.08680467  0.66725633  0.84708700  1
  O  O36  1  0.08680467  0.66725633  0.65291300  1
  O  O37  1  0.91956367  0.29195133  0.75000000  1
  O  O38  1  0.94237667  0.23878833  0.94501300  1
  O  O39  1  0.94237667  0.23878833  0.55498700  1
  O  O40  1  0.08680467  0.41954833  0.15291300  1
  O  O41  1  0.08680467  0.41954833  0.34708700  1
  O  O42  1  0.76121167  0.70358833  0.55498700  1
  O  O43  1  0.76121167  0.70358833  0.94501300  1
  O  O44  1  0.00000000  0.00000000  0.33584200  1
  O  O45  1  0.00000000  0.00000000  0.83584200  1
  O  O46  1  0.00000000  0.00000000  0.66415800  1
  O  O47  1  0.00000000  0.00000000  0.16415800  1
  O  O48  1  0.94237667  0.70358833  0.05498700  1
  O  O49  1  0.94237667  0.70358833  0.44501300  1
  O  O50  1  0.29641167  0.23878833  0.05498700  1
  O  O51  1  0.29641167  0.23878833  0.44501300  1
  O  O52  1  0.29641167  0.05762333  0.55498700  1
  O  O53  1  0.29641167  0.05762333  0.94501300  1
