# generated using pymatgen
data_CdSeO4
_symmetry_space_group_name_H-M   'P 1'
_cell_length_a   5.23560900
_cell_length_b   7.44616900
_cell_length_c   9.64281500
_cell_angle_alpha   90.00000000
_cell_angle_beta   90.00000000
_cell_angle_gamma   90.00000000
_symmetry_Int_Tables_number   1
_chemical_formula_structural   CdSeO4
_chemical_formula_sum   'Cd4 Se4 O16'
_cell_volume   375.92735514
_cell_formula_units_Z   4
loop_
 _symmetry_equiv_pos_site_id
 _symmetry_equiv_pos_as_xyz
  1  'x, y, z'
loop_
 _atom_site_type_symbol
 _atom_site_label
 _atom_site_symmetry_multiplicity
 _atom_site_fract_x
 _atom_site_fract_y
 _atom_site_fract_z
 _atom_site_occupancy
  Cd  Cd0  1  0.00000000  0.00000000  0.00000000  1
  Cd  Cd1  1  0.00000000  0.50000000  0.00000000  1
  Cd  Cd2  1  0.50000000  0.00000000  0.50000000  1
  Cd  Cd3  1  0.50000000  0.50000000  0.50000000  1
  Se  Se4  1  0.97654500  0.75000000  0.31778200  1
  Se  Se5  1  0.52345500  0.75000000  0.81778200  1
  Se  Se6  1  0.47654500  0.25000000  0.18221800  1
  Se  Se7  1  0.02345500  0.25000000  0.68221800  1
  O  O8  1  0.95167700  0.75000000  0.14181600  1
  O  O9  1  0.84055000  0.94028300  0.36943400  1
  O  O10  1  0.84055000  0.55971700  0.36943400  1
  O  O11  1  0.78282900  0.25000000  0.12838700  1
  O  O12  1  0.71717100  0.25000000  0.62838700  1
  O  O13  1  0.65945000  0.94028300  0.86943400  1
  O  O14  1  0.65945000  0.55971700  0.86943400  1
  O  O15  1  0.54832300  0.75000000  0.64181600  1
  O  O16  1  0.45167700  0.25000000  0.35818400  1
  O  O17  1  0.34055000  0.44028300  0.13056600  1
  O  O18  1  0.34055000  0.05971700  0.13056600  1
  O  O19  1  0.28282900  0.75000000  0.37161300  1
  O  O20  1  0.21717100  0.75000000  0.87161300  1
  O  O21  1  0.15945000  0.44028300  0.63056600  1
  O  O22  1  0.15945000  0.05971700  0.63056600  1
  O  O23  1  0.04832300  0.25000000  0.85818400  1
