# generated using pymatgen
data_Li4Mn3Sn5O16
_symmetry_space_group_name_H-M   'P 1'
_cell_length_a   10.93428762
_cell_length_b   6.10978439
_cell_length_c   9.96301796
_cell_angle_alpha   90.00000000
_cell_angle_beta   91.97344709
_cell_angle_gamma   90.00000000
_symmetry_Int_Tables_number   1
_chemical_formula_structural   Li4Mn3Sn5O16
_chemical_formula_sum   'Li8 Mn6 Sn10 O32'
_cell_volume   665.19600452
_cell_formula_units_Z   2
loop_
 _symmetry_equiv_pos_site_id
 _symmetry_equiv_pos_as_xyz
  1  'x, y, z'
loop_
 _atom_site_type_symbol
 _atom_site_label
 _atom_site_symmetry_multiplicity
 _atom_site_fract_x
 _atom_site_fract_y
 _atom_site_fract_z
 _atom_site_occupancy
  Li  Li0  1  0.66323575  0.00000000  0.89631550  1
  Li  Li1  1  0.98788875  0.00000000  0.98664750  1
  Li  Li2  1  0.99896025  0.00000000  0.49449500  1
  Li  Li3  1  0.83133625  0.50000000  0.40186150  1
  Li  Li4  1  0.16323575  0.50000000  0.89631550  1
  Li  Li5  1  0.48788875  0.50000000  0.98664750  1
  Li  Li6  1  0.49896025  0.50000000  0.49449500  1
  Li  Li7  1  0.33133625  0.00000000  0.40186150  1
  Mn  Mn8  1  0.83104000  0.00000000  0.21408600  1
  Mn  Mn9  1  0.91525275  0.25433175  0.71240650  1
  Mn  Mn10  1  0.91525275  0.74566825  0.71240650  1
  Mn  Mn11  1  0.33104000  0.50000000  0.21408600  1
  Mn  Mn12  1  0.41525275  0.75433175  0.71240650  1
  Mn  Mn13  1  0.41525275  0.24566825  0.71240650  1
  Sn  Sn14  1  0.67300500  0.00000000  0.49265650  1
  Sn  Sn15  1  0.67005700  0.50000000  0.71625450  1
  Sn  Sn16  1  0.83572850  0.50000000  0.98689300  1
  Sn  Sn17  1  0.58601500  0.75405000  0.21423950  1
  Sn  Sn18  1  0.58601500  0.24595000  0.21423950  1
  Sn  Sn19  1  0.17300500  0.50000000  0.49265650  1
  Sn  Sn20  1  0.17005700  0.00000000  0.71625450  1
  Sn  Sn21  1  0.33572850  0.00000000  0.98689300  1
  Sn  Sn22  1  0.08601500  0.25405000  0.21423950  1
  Sn  Sn23  1  0.08601500  0.74595000  0.21423950  1
  O  O24  1  0.51658050  0.00000000  0.34303100  1
  O  O25  1  0.65894525  0.00000000  0.09993950  1
  O  O26  1  0.50577050  0.50000000  0.31168450  1
  O  O27  1  0.99676325  0.00000000  0.80240400  1
  O  O28  1  0.66212950  0.50000000  0.09602700  1
  O  O29  1  0.84463600  0.00000000  0.60066700  1
  O  O30  1  0.83741600  0.50000000  0.61195200  1
  O  O31  1  0.97636375  0.50000000  0.83102150  1
  O  O32  1  0.58826500  0.74457700  0.59541650  1
  O  O33  1  0.58826500  0.25542300  0.59541650  1
  O  O34  1  0.73695425  0.77056225  0.34933500  1
  O  O35  1  0.73695425  0.22943775  0.34933500  1
  O  O36  1  0.75406175  0.27508675  0.84815300  1
  O  O37  1  0.75406175  0.72491325  0.84815300  1
  O  O38  1  0.92339525  0.24847825  0.09140250  1
  O  O39  1  0.92339525  0.75152175  0.09140250  1
  O  O40  1  0.01658050  0.50000000  0.34303100  1
  O  O41  1  0.15894525  0.50000000  0.09993950  1
  O  O42  1  0.00577050  0.00000000  0.31168450  1
  O  O43  1  0.49676325  0.50000000  0.80240400  1
  O  O44  1  0.16212950  0.00000000  0.09602700  1
  O  O45  1  0.34463600  0.50000000  0.60066700  1
  O  O46  1  0.33741600  0.00000000  0.61195200  1
  O  O47  1  0.47636375  0.00000000  0.83102150  1
  O  O48  1  0.08826500  0.24457700  0.59541650  1
  O  O49  1  0.08826500  0.75542300  0.59541650  1
  O  O50  1  0.23695425  0.27056225  0.34933500  1
  O  O51  1  0.23695425  0.72943775  0.34933500  1
  O  O52  1  0.25406175  0.77508675  0.84815300  1
  O  O53  1  0.25406175  0.22491325  0.84815300  1
  O  O54  1  0.42339525  0.74847825  0.09140250  1
  O  O55  1  0.42339525  0.25152175  0.09140250  1
