# generated using pymatgen
data_LiVB2O5
_symmetry_space_group_name_H-M   'P 1'
_cell_length_a   10.28788000
_cell_length_b   10.44707400
_cell_length_c   9.82921651
_cell_angle_alpha   90.00000000
_cell_angle_beta   119.74458558
_cell_angle_gamma   90.00000000
_symmetry_Int_Tables_number   1
_chemical_formula_structural   LiVB2O5
_chemical_formula_sum   'Li8 V8 B16 O40'
_cell_volume   917.23814011
_cell_formula_units_Z   8
loop_
 _symmetry_equiv_pos_site_id
 _symmetry_equiv_pos_as_xyz
  1  'x, y, z'
loop_
 _atom_site_type_symbol
 _atom_site_label
 _atom_site_symmetry_multiplicity
 _atom_site_fract_x
 _atom_site_fract_y
 _atom_site_fract_z
 _atom_site_occupancy
  Li  Li0  1  0.50000000  0.66004000  0.75000000  1
  Li  Li1  1  0.50000000  0.12044500  0.75000000  1
  Li  Li2  1  0.50000000  0.87955500  0.25000000  1
  Li  Li3  1  0.50000000  0.33996000  0.25000000  1
  Li  Li4  1  0.00000000  0.16004000  0.75000000  1
  Li  Li5  1  0.00000000  0.62044500  0.75000000  1
  Li  Li6  1  0.00000000  0.37955500  0.25000000  1
  Li  Li7  1  0.00000000  0.83996000  0.25000000  1
  V  V8  1  0.19904450  0.84197650  0.65047600  1
  V  V9  1  0.19904450  0.15802350  0.15047600  1
  V  V10  1  0.80095550  0.84197650  0.84952400  1
  V  V11  1  0.80095550  0.15802350  0.34952400  1
  V  V12  1  0.69904450  0.34197650  0.65047600  1
  V  V13  1  0.69904450  0.65802350  0.15047600  1
  V  V14  1  0.30095550  0.34197650  0.84952400  1
  V  V15  1  0.30095550  0.65802350  0.34952400  1
  B  B16  1  0.23321500  0.00570800  0.90356800  1
  B  B17  1  0.43096400  0.83277800  0.97542200  1
  B  B18  1  0.23321500  0.99429200  0.40356800  1
  B  B19  1  0.43096400  0.16722200  0.47542200  1
  B  B20  1  0.56903600  0.83277800  0.52457800  1
  B  B21  1  0.76678500  0.00570800  0.59643200  1
  B  B22  1  0.56903600  0.16722200  0.02457800  1
  B  B23  1  0.76678500  0.99429200  0.09643200  1
  B  B24  1  0.73321500  0.50570800  0.90356800  1
  B  B25  1  0.93096400  0.33277800  0.97542200  1
  B  B26  1  0.73321500  0.49429200  0.40356800  1
  B  B27  1  0.93096400  0.66722200  0.47542200  1
  B  B28  1  0.06903600  0.33277800  0.52457800  1
  B  B29  1  0.26678500  0.50570800  0.59643200  1
  B  B30  1  0.06903600  0.66722200  0.02457800  1
  B  B31  1  0.26678500  0.49429200  0.09643200  1
  O  O32  1  0.18868000  0.10742500  0.95891400  1
  O  O33  1  0.16050450  0.98503450  0.74685000  1
  O  O34  1  0.18868000  0.89257500  0.45891400  1
  O  O35  1  0.39155850  0.79412450  0.82788400  1
  O  O36  1  0.45085800  0.21480800  0.89051000  1
  O  O37  1  0.16050450  0.01496550  0.24685000  1
  O  O38  1  0.35347800  0.07169300  0.51133300  1
  O  O39  1  0.64652200  0.07169300  0.98866700  1
  O  O40  1  0.39155850  0.20587550  0.32788400  1
  O  O41  1  0.45085800  0.78519200  0.39051000  1
  O  O42  1  0.54914200  0.21480800  0.60949000  1
  O  O43  1  0.60844150  0.79412450  0.67211600  1
  O  O44  1  0.35347800  0.92830700  0.01133300  1
  O  O45  1  0.64652200  0.92830700  0.48866700  1
  O  O46  1  0.83949550  0.98503450  0.75315000  1
  O  O47  1  0.54914200  0.78519200  0.10949000  1
  O  O48  1  0.60844150  0.20587550  0.17211600  1
  O  O49  1  0.81132000  0.10742500  0.54108600  1
  O  O50  1  0.83949550  0.01496550  0.25315000  1
  O  O51  1  0.81132000  0.89257500  0.04108600  1
  O  O52  1  0.68868000  0.60742500  0.95891400  1
  O  O53  1  0.66050450  0.48503450  0.74685000  1
  O  O54  1  0.68868000  0.39257500  0.45891400  1
  O  O55  1  0.89155850  0.29412450  0.82788400  1
  O  O56  1  0.95085800  0.71480800  0.89051000  1
  O  O57  1  0.66050450  0.51496550  0.24685000  1
  O  O58  1  0.85347800  0.57169300  0.51133300  1
  O  O59  1  0.14652200  0.57169300  0.98866700  1
  O  O60  1  0.89155850  0.70587550  0.32788400  1
  O  O61  1  0.95085800  0.28519200  0.39051000  1
  O  O62  1  0.04914200  0.71480800  0.60949000  1
  O  O63  1  0.10844150  0.29412450  0.67211600  1
  O  O64  1  0.85347800  0.42830700  0.01133300  1
  O  O65  1  0.14652200  0.42830700  0.48866700  1
  O  O66  1  0.33949550  0.48503450  0.75315000  1
  O  O67  1  0.04914200  0.28519200  0.10949000  1
  O  O68  1  0.10844150  0.70587550  0.17211600  1
  O  O69  1  0.31132000  0.60742500  0.54108600  1
  O  O70  1  0.33949550  0.51496550  0.25315000  1
  O  O71  1  0.31132000  0.39257500  0.04108600  1
