# generated using pymatgen
data_Li3MnSi2O7
_symmetry_space_group_name_H-M   'P 1'
_cell_length_a   8.53741800
_cell_length_b   13.04681500
_cell_length_c   8.59223608
_cell_angle_alpha   90.00000000
_cell_angle_beta   118.52299582
_cell_angle_gamma   90.00000000
_symmetry_Int_Tables_number   1
_chemical_formula_structural   Li3MnSi2O7
_chemical_formula_sum   'Li18 Mn6 Si12 O42'
_cell_volume   840.89364495
_cell_formula_units_Z   6
loop_
 _symmetry_equiv_pos_site_id
 _symmetry_equiv_pos_as_xyz
  1  'x, y, z'
loop_
 _atom_site_type_symbol
 _atom_site_label
 _atom_site_symmetry_multiplicity
 _atom_site_fract_x
 _atom_site_fract_y
 _atom_site_fract_z
 _atom_site_occupancy
  Li  Li0  1  0.97264300  0.89940800  0.66143600  1
  Li  Li1  1  0.97230900  0.56425800  0.66497100  1
  Li  Li2  1  0.66880300  0.21786400  0.34355200  1
  Li  Li3  1  0.66085300  0.73348600  0.31917800  1
  Li  Li4  1  0.00108000  0.46392700  0.00163300  1
  Li  Li5  1  0.99892000  0.96392700  0.99836700  1
  Li  Li6  1  0.68631600  0.56756100  0.01694800  1
  Li  Li7  1  0.68852800  0.89483000  0.01900200  1
  Li  Li8  1  0.33117700  0.89990300  0.30366700  1
  Li  Li9  1  0.32986500  0.56475900  0.30357200  1
  Li  Li10  1  0.67013500  0.06475900  0.69642800  1
  Li  Li11  1  0.66882300  0.39990300  0.69633300  1
  Li  Li12  1  0.31147200  0.39483000  0.98099800  1
  Li  Li13  1  0.31368400  0.06756100  0.98305200  1
  Li  Li14  1  0.33914700  0.23348600  0.68082200  1
  Li  Li15  1  0.33119700  0.71786400  0.65644800  1
  Li  Li16  1  0.02769100  0.06425800  0.33502900  1
  Li  Li17  1  0.02735700  0.39940800  0.33856400  1
  Mn  Mn18  1  0.98254000  0.23118600  0.97387200  1
  Mn  Mn19  1  0.01746000  0.73118600  0.02612800  1
  Mn  Mn20  1  0.66495800  0.50866200  0.33187900  1
  Mn  Mn21  1  0.66399200  0.95643600  0.33186100  1
  Mn  Mn22  1  0.33600800  0.45643600  0.66813900  1
  Mn  Mn23  1  0.33504200  0.00866200  0.66812100  1
  Si  Si24  1  0.97767700  0.34616600  0.65249700  1
  Si  Si25  1  0.97915100  0.12070100  0.65229600  1
  Si  Si26  1  0.67404300  0.12110800  0.03243200  1
  Si  Si27  1  0.67539500  0.34341600  0.03442000  1
  Si  Si28  1  0.34655000  0.11879900  0.32869700  1
  Si  Si29  1  0.35133800  0.34643500  0.32904500  1
  Si  Si30  1  0.64866200  0.84643500  0.67095500  1
  Si  Si31  1  0.65345000  0.61879900  0.67130300  1
  Si  Si32  1  0.32460500  0.84341600  0.96558000  1
  Si  Si33  1  0.32595700  0.62110800  0.96756800  1
  Si  Si34  1  0.02084900  0.62070100  0.34770400  1
  Si  Si35  1  0.02232300  0.84616600  0.34750300  1
  O  O36  1  0.86231000  0.84891700  0.79228400  1
  O  O37  1  0.86205300  0.62092200  0.78994000  1
  O  O38  1  0.87836800  0.23310400  0.56949600  1
  O  O39  1  0.81772100  0.03741200  0.57837000  1
  O  O40  1  0.81947400  0.42938200  0.58287400  1
  O  O41  1  0.87228500  0.60337800  0.41436100  1
  O  O42  1  0.87347900  0.85934800  0.41415100  1
  O  O43  1  0.92693700  0.83894700  0.13024200  1
  O  O44  1  0.57874700  0.86420100  0.45673700  1
  O  O45  1  0.92036200  0.62896500  0.12855400  1
  O  O46  1  0.57740000  0.60183700  0.45548200  1
  O  O47  1  0.75442300  0.03370500  0.19117400  1
  O  O48  1  0.75688100  0.43225300  0.18987700  1
  O  O49  1  0.70640900  0.23191000  0.14297800  1
  O  O50  1  0.80030400  0.34213400  0.93572400  1
  O  O51  1  0.43572600  0.23268200  0.31699200  1
  O  O52  1  0.79586400  0.12464800  0.93169700  1
  O  O53  1  0.43900000  0.43015300  0.24613500  1
  O  O54  1  0.43409800  0.03641200  0.24616300  1
  O  O55  1  0.53368600  0.61181800  0.10652400  1
  O  O56  1  0.53177000  0.85550700  0.10689400  1
  O  O57  1  0.46823000  0.35550700  0.89310600  1
  O  O58  1  0.46631400  0.11181800  0.89347600  1
  O  O59  1  0.56590200  0.53641200  0.75383700  1
  O  O60  1  0.56100000  0.93015300  0.75386500  1
  O  O61  1  0.20413600  0.62464800  0.06830300  1
  O  O62  1  0.56427400  0.73268200  0.68300800  1
  O  O63  1  0.19969600  0.84213400  0.06427600  1
  O  O64  1  0.29359100  0.73191000  0.85702200  1
  O  O65  1  0.24311900  0.93225300  0.81012300  1
  O  O66  1  0.24557700  0.53370500  0.80882600  1
  O  O67  1  0.42260000  0.10183700  0.54451800  1
  O  O68  1  0.07963800  0.12896500  0.87144600  1
  O  O69  1  0.42125300  0.36420100  0.54326300  1
  O  O70  1  0.07306300  0.33894700  0.86975800  1
  O  O71  1  0.12652100  0.35934800  0.58584900  1
  O  O72  1  0.12771500  0.10337800  0.58563900  1
  O  O73  1  0.18052600  0.92938200  0.41712600  1
  O  O74  1  0.18227900  0.53741200  0.42163000  1
  O  O75  1  0.12163200  0.73310400  0.43050400  1
  O  O76  1  0.13794700  0.12092200  0.21006000  1
  O  O77  1  0.13769000  0.34891700  0.20771600  1
