# generated using pymatgen
data_Sr2Li2Nb4O13
_symmetry_space_group_name_H-M   'P 1'
_cell_length_a   4.00477400
_cell_length_b   4.00477400
_cell_length_c   34.51831800
_cell_angle_alpha   90.00000000
_cell_angle_beta   90.00000000
_cell_angle_gamma   90.00000000
_symmetry_Int_Tables_number   1
_chemical_formula_structural   Sr2Li2Nb4O13
_chemical_formula_sum   'Sr4 Li4 Nb8 O26'
_cell_volume   553.61219831
_cell_formula_units_Z   2
loop_
 _symmetry_equiv_pos_site_id
 _symmetry_equiv_pos_as_xyz
  1  'x, y, z'
loop_
 _atom_site_type_symbol
 _atom_site_label
 _atom_site_symmetry_multiplicity
 _atom_site_fract_x
 _atom_site_fract_y
 _atom_site_fract_z
 _atom_site_occupancy
  Sr  Sr0  1  0.50000000  0.50000000  0.11648800  1
  Sr  Sr1  1  0.00000000  0.00000000  0.38351200  1
  Sr  Sr2  1  0.00000000  0.00000000  0.61648800  1
  Sr  Sr3  1  0.50000000  0.50000000  0.88351200  1
  Li  Li4  1  0.50000000  0.00000000  0.25000000  1
  Li  Li5  1  0.00000000  0.50000000  0.25000000  1
  Li  Li6  1  0.00000000  0.50000000  0.75000000  1
  Li  Li7  1  0.50000000  0.00000000  0.75000000  1
  Nb  Nb8  1  0.50000000  0.50000000  0.44381300  1
  Nb  Nb9  1  0.50000000  0.50000000  0.32122000  1
  Nb  Nb10  1  0.00000000  0.00000000  0.05618700  1
  Nb  Nb11  1  0.00000000  0.00000000  0.17878000  1
  Nb  Nb12  1  0.00000000  0.00000000  0.94381300  1
  Nb  Nb13  1  0.00000000  0.00000000  0.82122000  1
  Nb  Nb14  1  0.50000000  0.50000000  0.55618700  1
  Nb  Nb15  1  0.50000000  0.50000000  0.67878000  1
  O  O16  1  0.00000000  0.00000000  0.00000000  1
  O  O17  1  0.50000000  0.00000000  0.06238000  1
  O  O18  1  0.50000000  0.00000000  0.17323000  1
  O  O19  1  0.50000000  0.00000000  0.32677000  1
  O  O20  1  0.50000000  0.00000000  0.43762000  1
  O  O21  1  0.50000000  0.50000000  0.26618400  1
  O  O22  1  0.50000000  0.50000000  0.38307600  1
  O  O23  1  0.00000000  0.00000000  0.11692400  1
  O  O24  1  0.00000000  0.00000000  0.23381600  1
  O  O25  1  0.00000000  0.50000000  0.17323000  1
  O  O26  1  0.00000000  0.50000000  0.06238000  1
  O  O27  1  0.00000000  0.50000000  0.43762000  1
  O  O28  1  0.00000000  0.50000000  0.32677000  1
  O  O29  1  0.50000000  0.50000000  0.50000000  1
  O  O30  1  0.00000000  0.50000000  0.56238000  1
  O  O31  1  0.00000000  0.50000000  0.67323000  1
  O  O32  1  0.00000000  0.50000000  0.82677000  1
  O  O33  1  0.00000000  0.50000000  0.93762000  1
  O  O34  1  0.00000000  0.00000000  0.76618400  1
  O  O35  1  0.00000000  0.00000000  0.88307600  1
  O  O36  1  0.50000000  0.50000000  0.61692400  1
  O  O37  1  0.50000000  0.50000000  0.73381600  1
  O  O38  1  0.50000000  0.00000000  0.67323000  1
  O  O39  1  0.50000000  0.00000000  0.56238000  1
  O  O40  1  0.50000000  0.00000000  0.93762000  1
  O  O41  1  0.50000000  0.00000000  0.82677000  1
