# generated using pymatgen
data_Fe8O9
_symmetry_space_group_name_H-M   'P 1'
_cell_length_a   5.31101400
_cell_length_b   5.35250522
_cell_length_c   6.82890974
_cell_angle_alpha   82.15087273
_cell_angle_beta   74.66923332
_cell_angle_gamma   80.75265086
_symmetry_Int_Tables_number   1
_chemical_formula_structural   Fe8O9
_chemical_formula_sum   'Fe8 O9'
_cell_volume   183.88123434
_cell_formula_units_Z   1
loop_
 _symmetry_equiv_pos_site_id
 _symmetry_equiv_pos_as_xyz
  1  'x, y, z'
loop_
 _atom_site_type_symbol
 _atom_site_label
 _atom_site_symmetry_multiplicity
 _atom_site_fract_x
 _atom_site_fract_y
 _atom_site_fract_z
 _atom_site_occupancy
  Fe  Fe0  1  0.89100400  0.78954400  0.42416700  1
  Fe  Fe1  1  0.45009100  0.89168400  0.21396500  1
  Fe  Fe2  1  0.79049000  0.55068600  0.88196400  1
  Fe  Fe3  1  0.32366300  0.68212200  0.67036900  1
  Fe  Fe4  1  0.20951000  0.44931400  0.11803600  1
  Fe  Fe5  1  0.67633700  0.31787800  0.32963100  1
  Fe  Fe6  1  0.54990900  0.10831600  0.78603500  1
  Fe  Fe7  1  0.10899600  0.21045600  0.57583300  1
  O  O8  1  0.83448500  0.64674300  0.15561100  1
  O  O9  1  0.92336700  0.88011700  0.71583600  1
  O  O10  1  0.72782600  0.45136900  0.61178400  1
  O  O11  1  0.41424500  0.74423900  0.94327200  1
  O  O12  1  0.27217400  0.54863100  0.38821600  1
  O  O13  1  0.58575500  0.25576100  0.05672800  1
  O  O14  1  0.07663300  0.11988300  0.28416400  1
  O  O15  1  0.16551500  0.35325700  0.84438900  1
  O  O16  1  0.50000000  0.00000000  0.50000000  1
