# generated using pymatgen
data_LiTa2CuO6
_symmetry_space_group_name_H-M   'P 1'
_cell_length_a   5.24606166
_cell_length_b   5.24606166
_cell_length_c   14.05477872
_cell_angle_alpha   90.00000000
_cell_angle_beta   90.00000000
_cell_angle_gamma   120.00000000
_symmetry_Int_Tables_number   1
_chemical_formula_structural   LiTa2CuO6
_chemical_formula_sum   'Li3 Ta6 Cu3 O18'
_cell_volume   334.98196545
_cell_formula_units_Z   3
loop_
 _symmetry_equiv_pos_site_id
 _symmetry_equiv_pos_as_xyz
  1  'x, y, z'
loop_
 _atom_site_type_symbol
 _atom_site_label
 _atom_site_symmetry_multiplicity
 _atom_site_fract_x
 _atom_site_fract_y
 _atom_site_fract_z
 _atom_site_occupancy
  Li  Li0  1  0.33333333  0.66666667  0.16666667  1
  Li  Li1  1  0.00000000  0.00000000  0.50000000  1
  Li  Li2  1  0.66666667  0.33333333  0.83333333  1
  Ta  Ta3  1  0.00000000  0.00000000  0.24857700  1
  Ta  Ta4  1  0.66666667  0.33333333  0.08475633  1
  Ta  Ta5  1  0.66666667  0.33333333  0.58191033  1
  Ta  Ta6  1  0.33333333  0.66666667  0.41808967  1
  Ta  Ta7  1  0.33333333  0.66666667  0.91524367  1
  Ta  Ta8  1  0.00000000  0.00000000  0.75142300  1
  Cu  Cu9  1  0.00000000  0.00000000  0.00000000  1
  Cu  Cu10  1  0.66666667  0.33333333  0.33333333  1
  Cu  Cu11  1  0.33333333  0.66666667  0.66666667  1
  O  O12  1  0.38712200  0.00000000  0.00000000  1
  O  O13  1  0.61287800  0.61287800  0.00000000  1
  O  O14  1  0.00000000  0.38712200  0.00000000  1
  O  O15  1  0.33333333  0.28615367  0.16666667  1
  O  O16  1  0.71384633  0.04717967  0.16666667  1
  O  O17  1  0.95282033  0.66666667  0.16666667  1
  O  O18  1  0.05378867  0.33333333  0.33333333  1
  O  O19  1  0.27954467  0.94621133  0.33333333  1
  O  O20  1  0.66666667  0.72045533  0.33333333  1
  O  O21  1  0.00000000  0.61948700  0.50000000  1
  O  O22  1  0.38051300  0.38051300  0.50000000  1
  O  O23  1  0.61948700  0.00000000  0.50000000  1
  O  O24  1  0.72045533  0.66666667  0.66666667  1
  O  O25  1  0.94621133  0.27954467  0.66666667  1
  O  O26  1  0.33333333  0.05378867  0.66666667  1
  O  O27  1  0.66666667  0.95282033  0.83333333  1
  O  O28  1  0.04717967  0.71384633  0.83333333  1
  O  O29  1  0.28615367  0.33333333  0.83333333  1
