# generated using pymatgen
data_Na3SiH3O5
_symmetry_space_group_name_H-M   'P 1'
_cell_length_a   7.97929600
_cell_length_b   6.01068800
_cell_length_c   11.27796183
_cell_angle_alpha   90.00000000
_cell_angle_beta   105.22813248
_cell_angle_gamma   90.00000000
_symmetry_Int_Tables_number   1
_chemical_formula_structural   Na3SiH3O5
_chemical_formula_sum   'Na12 Si4 H12 O20'
_cell_volume   521.91061027
_cell_formula_units_Z   4
loop_
 _symmetry_equiv_pos_site_id
 _symmetry_equiv_pos_as_xyz
  1  'x, y, z'
loop_
 _atom_site_type_symbol
 _atom_site_label
 _atom_site_symmetry_multiplicity
 _atom_site_fract_x
 _atom_site_fract_y
 _atom_site_fract_z
 _atom_site_occupancy
  Na  Na0  1  0.74987600  0.98896200  0.66533900  1
  Na  Na1  1  0.25012400  0.48896200  0.83466100  1
  Na  Na2  1  0.25012400  0.01103800  0.33466100  1
  Na  Na3  1  0.74987600  0.51103800  0.16533900  1
  Na  Na4  1  0.60105600  0.69267400  0.43173000  1
  Na  Na5  1  0.39894400  0.19267400  0.06827000  1
  Na  Na6  1  0.39894400  0.30732600  0.56827000  1
  Na  Na7  1  0.60105600  0.80732600  0.93173000  1
  Na  Na8  1  0.02146100  0.24392000  0.55989500  1
  Na  Na9  1  0.97853900  0.74392000  0.94010500  1
  Na  Na10  1  0.97853900  0.75608000  0.44010500  1
  Na  Na11  1  0.02146100  0.25608000  0.05989500  1
  Si  Si12  1  0.30793700  0.79388000  0.63587000  1
  Si  Si13  1  0.69206300  0.29388000  0.86413000  1
  Si  Si14  1  0.69206300  0.20612000  0.36413000  1
  Si  Si15  1  0.30793700  0.70612000  0.13587000  1
  H  H16  1  0.42970800  0.09767100  0.83291400  1
  H  H17  1  0.57029200  0.59767100  0.66708600  1
  H  H18  1  0.57029200  0.90232900  0.16708600  1
  H  H19  1  0.42970800  0.40232900  0.33291400  1
  H  H20  1  0.01267900  0.61518200  0.67504200  1
  H  H21  1  0.98732100  0.11518200  0.82495800  1
  H  H22  1  0.98732100  0.38481800  0.32495800  1
  H  H23  1  0.01267900  0.88481800  0.17504200  1
  H  H24  1  0.83915700  0.52730300  0.71594500  1
  H  H25  1  0.16084300  0.02730300  0.78405500  1
  H  H26  1  0.16084300  0.47269700  0.28405500  1
  H  H27  1  0.83915700  0.97269700  0.21594500  1
  O  O28  1  0.50801900  0.72905300  0.61538600  1
  O  O29  1  0.49198100  0.22905300  0.88461400  1
  O  O30  1  0.49198100  0.27094700  0.38461400  1
  O  O31  1  0.50801900  0.77094700  0.11538600  1
  O  O32  1  0.22920000  0.98783500  0.53604400  1
  O  O33  1  0.77080000  0.48783500  0.96395600  1
  O  O34  1  0.77080000  0.01216500  0.46395600  1
  O  O35  1  0.22920000  0.51216500  0.03604400  1
  O  O36  1  0.18847500  0.56603900  0.61182400  1
  O  O37  1  0.81152500  0.06603900  0.88817600  1
  O  O38  1  0.81152500  0.43396100  0.38817600  1
  O  O39  1  0.18847500  0.93396100  0.11182400  1
  O  O40  1  0.33762300  0.86972300  0.78069200  1
  O  O41  1  0.66237700  0.36972300  0.71930800  1
  O  O42  1  0.66237700  0.13027700  0.21930800  1
  O  O43  1  0.33762300  0.63027700  0.28069200  1
  O  O44  1  0.92699600  0.65177700  0.72338200  1
  O  O45  1  0.07300400  0.15177700  0.77661800  1
  O  O46  1  0.07300400  0.34822300  0.27661800  1
  O  O47  1  0.92699600  0.84822300  0.22338200  1
