# generated using pymatgen
data_Sn8P2O13
_symmetry_space_group_name_H-M   'P 1'
_cell_length_a   10.52690800
_cell_length_b   10.17053800
_cell_length_c   14.34080613
_cell_angle_alpha   90.00000000
_cell_angle_beta   97.99871919
_cell_angle_gamma   90.00000000
_symmetry_Int_Tables_number   1
_chemical_formula_structural   Sn8P2O13
_chemical_formula_sum   'Sn32 P8 O52'
_cell_volume   1520.45110506
_cell_formula_units_Z   4
loop_
 _symmetry_equiv_pos_site_id
 _symmetry_equiv_pos_as_xyz
  1  'x, y, z'
loop_
 _atom_site_type_symbol
 _atom_site_label
 _atom_site_symmetry_multiplicity
 _atom_site_fract_x
 _atom_site_fract_y
 _atom_site_fract_z
 _atom_site_occupancy
  Sn  Sn0  1  0.57425900  0.50000000  0.69443400  1
  Sn  Sn1  1  0.76299300  0.50000000  0.51243800  1
  Sn  Sn2  1  0.82753000  0.50000000  0.89087700  1
  Sn  Sn3  1  0.81193800  0.73615800  0.70587700  1
  Sn  Sn4  1  0.81193800  0.26384200  0.70587700  1
  Sn  Sn5  1  0.92566100  0.50000000  0.28449600  1
  Sn  Sn6  1  0.91640500  0.75437200  0.09640300  1
  Sn  Sn7  1  0.91640500  0.24562800  0.09640300  1
  Sn  Sn8  1  0.08359500  0.24562800  0.90359700  1
  Sn  Sn9  1  0.08359500  0.75437200  0.90359700  1
  Sn  Sn10  1  0.07433900  0.50000000  0.71550400  1
  Sn  Sn11  1  0.18806200  0.26384200  0.29412300  1
  Sn  Sn12  1  0.18806200  0.73615800  0.29412300  1
  Sn  Sn13  1  0.17247000  0.50000000  0.10912300  1
  Sn  Sn14  1  0.23700700  0.50000000  0.48756200  1
  Sn  Sn15  1  0.42574100  0.50000000  0.30556600  1
  Sn  Sn16  1  0.07425900  0.00000000  0.69443400  1
  Sn  Sn17  1  0.26299300  0.00000000  0.51243800  1
  Sn  Sn18  1  0.32753000  0.00000000  0.89087700  1
  Sn  Sn19  1  0.31193800  0.23615800  0.70587700  1
  Sn  Sn20  1  0.31193800  0.76384200  0.70587700  1
  Sn  Sn21  1  0.42566100  0.00000000  0.28449600  1
  Sn  Sn22  1  0.41640500  0.25437200  0.09640300  1
  Sn  Sn23  1  0.41640500  0.74562800  0.09640300  1
  Sn  Sn24  1  0.58359500  0.74562800  0.90359700  1
  Sn  Sn25  1  0.58359500  0.25437200  0.90359700  1
  Sn  Sn26  1  0.57433900  0.00000000  0.71550400  1
  Sn  Sn27  1  0.68806200  0.76384200  0.29412300  1
  Sn  Sn28  1  0.68806200  0.23615800  0.29412300  1
  Sn  Sn29  1  0.67247000  0.00000000  0.10912300  1
  Sn  Sn30  1  0.73700700  0.00000000  0.48756200  1
  Sn  Sn31  1  0.92574100  0.00000000  0.30556600  1
  P  P32  1  0.65568900  0.50000000  0.09869200  1
  P  P33  1  0.00000000  0.25339600  0.50000000  1
  P  P34  1  0.00000000  0.74660400  0.50000000  1
  P  P35  1  0.34431100  0.50000000  0.90130800  1
  P  P36  1  0.15568900  0.00000000  0.09869200  1
  P  P37  1  0.50000000  0.75339600  0.50000000  1
  P  P38  1  0.50000000  0.24660400  0.50000000  1
  P  P39  1  0.84431100  0.00000000  0.90130800  1
  O  O40  1  0.64801600  0.50000000  0.98995300  1
  O  O41  1  0.69319150  0.64151550  0.80937500  1
  O  O42  1  0.69319150  0.35848450  0.80937500  1
  O  O43  1  0.76942800  0.50000000  0.66197300  1
  O  O44  1  0.90857050  0.87436750  0.86539400  1
  O  O45  1  0.90857050  0.12563250  0.86539400  1
  O  O46  1  0.79918000  0.50000000  0.14357900  1
  O  O47  1  0.92104100  0.65685000  0.56042700  1
  O  O48  1  0.92104100  0.34315000  0.56042700  1
  O  O49  1  0.97409950  0.35538450  0.78747900  1
  O  O50  1  0.97409950  0.64461550  0.78747900  1
  O  O51  1  0.90604900  0.83295500  0.43252600  1
  O  O52  1  0.90604900  0.16704500  0.43252600  1
  O  O53  1  0.09395100  0.16704500  0.56747400  1
  O  O54  1  0.09395100  0.83295500  0.56747400  1
  O  O55  1  0.02590050  0.35538450  0.21252100  1
  O  O56  1  0.02590050  0.64461550  0.21252100  1
  O  O57  1  0.07895900  0.34315000  0.43957300  1
  O  O58  1  0.07895900  0.65685000  0.43957300  1
  O  O59  1  0.20082000  0.50000000  0.85642100  1
  O  O60  1  0.09142950  0.12563250  0.13460600  1
  O  O61  1  0.09142950  0.87436750  0.13460600  1
  O  O62  1  0.23057200  0.50000000  0.33802700  1
  O  O63  1  0.30680850  0.35848450  0.19062500  1
  O  O64  1  0.30680850  0.64151550  0.19062500  1
  O  O65  1  0.35198400  0.50000000  0.01004700  1
  O  O66  1  0.14801600  0.00000000  0.98995300  1
  O  O67  1  0.19319150  0.14151550  0.80937500  1
  O  O68  1  0.19319150  0.85848450  0.80937500  1
  O  O69  1  0.26942800  0.00000000  0.66197300  1
  O  O70  1  0.40857050  0.37436750  0.86539400  1
  O  O71  1  0.40857050  0.62563250  0.86539400  1
  O  O72  1  0.29918000  0.00000000  0.14357900  1
  O  O73  1  0.42104100  0.15685000  0.56042700  1
  O  O74  1  0.42104100  0.84315000  0.56042700  1
  O  O75  1  0.47409950  0.85538450  0.78747900  1
  O  O76  1  0.47409950  0.14461550  0.78747900  1
  O  O77  1  0.40604900  0.33295500  0.43252600  1
  O  O78  1  0.40604900  0.66704500  0.43252600  1
  O  O79  1  0.59395100  0.66704500  0.56747400  1
  O  O80  1  0.59395100  0.33295500  0.56747400  1
  O  O81  1  0.52590050  0.85538450  0.21252100  1
  O  O82  1  0.52590050  0.14461550  0.21252100  1
  O  O83  1  0.57895900  0.84315000  0.43957300  1
  O  O84  1  0.57895900  0.15685000  0.43957300  1
  O  O85  1  0.70082000  0.00000000  0.85642100  1
  O  O86  1  0.59142950  0.62563250  0.13460600  1
  O  O87  1  0.59142950  0.37436750  0.13460600  1
  O  O88  1  0.73057200  0.00000000  0.33802700  1
  O  O89  1  0.80680850  0.85848450  0.19062500  1
  O  O90  1  0.80680850  0.14151550  0.19062500  1
  O  O91  1  0.85198400  0.00000000  0.01004700  1
