# generated using pymatgen
data_Li3CuF6
_symmetry_space_group_name_H-M   'P 1'
_cell_length_a   14.54344400
_cell_length_b   8.65956000
_cell_length_c   10.10373618
_cell_angle_alpha   90.00000000
_cell_angle_beta   94.44302832
_cell_angle_gamma   90.00000000
_symmetry_Int_Tables_number   1
_chemical_formula_structural   Li3CuF6
_chemical_formula_sum   'Li36 Cu12 F72'
_cell_volume   1268.63884209
_cell_formula_units_Z   12
loop_
 _symmetry_equiv_pos_site_id
 _symmetry_equiv_pos_as_xyz
  1  'x, y, z'
loop_
 _atom_site_type_symbol
 _atom_site_label
 _atom_site_symmetry_multiplicity
 _atom_site_fract_x
 _atom_site_fract_y
 _atom_site_fract_z
 _atom_site_occupancy
  Li  Li0  1  0.20143700  0.85841700  0.43214000  1
  Li  Li1  1  0.35835750  0.64725150  0.23253300  1
  Li  Li2  1  0.20143700  0.14158300  0.93214000  1
  Li  Li3  1  0.33345950  0.79050250  0.94844500  1
  Li  Li4  1  0.33345950  0.20949750  0.44844500  1
  Li  Li5  1  0.47718100  0.84801300  0.46081800  1
  Li  Li6  1  0.50000000  0.68791500  0.75000000  1
  Li  Li7  1  0.52281900  0.84801300  0.03918200  1
  Li  Li8  1  0.64164250  0.64725150  0.26746700  1
  Li  Li9  1  0.35835750  0.35274850  0.73253300  1
  Li  Li10  1  0.47718100  0.15198700  0.96081800  1
  Li  Li11  1  0.50000000  0.31208500  0.25000000  1
  Li  Li12  1  0.52281900  0.15198700  0.53918200  1
  Li  Li13  1  0.66654050  0.79050250  0.55155500  1
  Li  Li14  1  0.66654050  0.20949750  0.05155500  1
  Li  Li15  1  0.79856300  0.85841700  0.06786000  1
  Li  Li16  1  0.64164250  0.35274850  0.76746700  1
  Li  Li17  1  0.79856300  0.14158300  0.56786000  1
  Li  Li18  1  0.70143700  0.35841700  0.43214000  1
  Li  Li19  1  0.85835750  0.14725150  0.23253300  1
  Li  Li20  1  0.70143700  0.64158300  0.93214000  1
  Li  Li21  1  0.83345950  0.29050250  0.94844500  1
  Li  Li22  1  0.83345950  0.70949750  0.44844500  1
  Li  Li23  1  0.97718100  0.34801300  0.46081800  1
  Li  Li24  1  0.00000000  0.18791500  0.75000000  1
  Li  Li25  1  0.02281900  0.34801300  0.03918200  1
  Li  Li26  1  0.14164250  0.14725150  0.26746700  1
  Li  Li27  1  0.85835750  0.85274850  0.73253300  1
  Li  Li28  1  0.97718100  0.65198700  0.96081800  1
  Li  Li29  1  0.00000000  0.81208500  0.25000000  1
  Li  Li30  1  0.02281900  0.65198700  0.53918200  1
  Li  Li31  1  0.16654050  0.29050250  0.55155500  1
  Li  Li32  1  0.16654050  0.70949750  0.05155500  1
  Li  Li33  1  0.29856300  0.35841700  0.06786000  1
  Li  Li34  1  0.14164250  0.85274850  0.76746700  1
  Li  Li35  1  0.29856300  0.64158300  0.56786000  1
  Cu  Cu36  1  0.00000000  0.00000000  0.00000000  1
  Cu  Cu37  1  0.33681300  0.00210400  0.20434800  1
  Cu  Cu38  1  0.00000000  0.00000000  0.50000000  1
  Cu  Cu39  1  0.33681300  0.99789600  0.70434800  1
  Cu  Cu40  1  0.66318700  0.00210400  0.29565200  1
  Cu  Cu41  1  0.66318700  0.99789600  0.79565200  1
  Cu  Cu42  1  0.50000000  0.50000000  0.00000000  1
  Cu  Cu43  1  0.83681300  0.50210400  0.20434800  1
  Cu  Cu44  1  0.50000000  0.50000000  0.50000000  1
  Cu  Cu45  1  0.83681300  0.49789600  0.70434800  1
  Cu  Cu46  1  0.16318700  0.50210400  0.29565200  1
  Cu  Cu47  1  0.16318700  0.49789600  0.79565200  1
  F  F48  1  0.07242850  0.99155050  0.16546700  1
  F  F49  1  0.07242850  0.00844950  0.66546700  1
  F  F50  1  0.27017150  0.83898850  0.11045100  1
  F  F51  1  0.26124950  0.84515050  0.60749400  1
  F  F52  1  0.24772050  0.02139250  0.33710700  1
  F  F53  1  0.24772050  0.97860750  0.83710700  1
  F  F54  1  0.42365400  0.66218100  0.06387500  1
  F  F55  1  0.26124950  0.15484950  0.10749400  1
  F  F56  1  0.39858200  0.84163600  0.30464300  1
  F  F57  1  0.42816850  0.66604950  0.56546800  1
  F  F58  1  0.27017150  0.16101150  0.61045100  1
  F  F59  1  0.40552350  0.84027150  0.80287400  1
  F  F60  1  0.42092050  0.99109250  0.06672300  1
  F  F61  1  0.57634600  0.66218100  0.43612500  1
  F  F62  1  0.40552350  0.15972850  0.30287400  1
  F  F63  1  0.42092050  0.00890750  0.56672300  1
  F  F64  1  0.57183150  0.66604950  0.93453200  1
  F  F65  1  0.39858200  0.15836400  0.80464300  1
  F  F66  1  0.60141800  0.84163600  0.19535700  1
  F  F67  1  0.42816850  0.33395050  0.06546800  1
  F  F68  1  0.57907950  0.99109250  0.43327700  1
  F  F69  1  0.59447650  0.84027150  0.69712600  1
  F  F70  1  0.42365400  0.33781900  0.56387500  1
  F  F71  1  0.57907950  0.00890750  0.93327700  1
  F  F72  1  0.59447650  0.15972850  0.19712600  1
  F  F73  1  0.72982850  0.83898850  0.38954900  1
  F  F74  1  0.57183150  0.33395050  0.43453200  1
  F  F75  1  0.60141800  0.15836400  0.69535700  1
  F  F76  1  0.73875050  0.84515050  0.89250600  1
  F  F77  1  0.57634600  0.33781900  0.93612500  1
  F  F78  1  0.75227950  0.02139250  0.16289300  1
  F  F79  1  0.75227950  0.97860750  0.66289300  1
  F  F80  1  0.73875050  0.15484950  0.39250600  1
  F  F81  1  0.72982850  0.16101150  0.88954900  1
  F  F82  1  0.92757150  0.99155050  0.33453300  1
  F  F83  1  0.92757150  0.00844950  0.83453300  1
  F  F84  1  0.57242850  0.49155050  0.16546700  1
  F  F85  1  0.57242850  0.50844950  0.66546700  1
  F  F86  1  0.77017150  0.33898850  0.11045100  1
  F  F87  1  0.76124950  0.34515050  0.60749400  1
  F  F88  1  0.74772050  0.52139250  0.33710700  1
  F  F89  1  0.74772050  0.47860750  0.83710700  1
  F  F90  1  0.92365400  0.16218100  0.06387500  1
  F  F91  1  0.76124950  0.65484950  0.10749400  1
  F  F92  1  0.89858200  0.34163600  0.30464300  1
  F  F93  1  0.92816850  0.16604950  0.56546800  1
  F  F94  1  0.77017150  0.66101150  0.61045100  1
  F  F95  1  0.90552350  0.34027150  0.80287400  1
  F  F96  1  0.92092050  0.49109250  0.06672300  1
  F  F97  1  0.07634600  0.16218100  0.43612500  1
  F  F98  1  0.90552350  0.65972850  0.30287400  1
  F  F99  1  0.92092050  0.50890750  0.56672300  1
  F  F100  1  0.07183150  0.16604950  0.93453200  1
  F  F101  1  0.89858200  0.65836400  0.80464300  1
  F  F102  1  0.10141800  0.34163600  0.19535700  1
  F  F103  1  0.92816850  0.83395050  0.06546800  1
  F  F104  1  0.07907950  0.49109250  0.43327700  1
  F  F105  1  0.09447650  0.34027150  0.69712600  1
  F  F106  1  0.92365400  0.83781900  0.56387500  1
  F  F107  1  0.07907950  0.50890750  0.93327700  1
  F  F108  1  0.09447650  0.65972850  0.19712600  1
  F  F109  1  0.22982850  0.33898850  0.38954900  1
  F  F110  1  0.07183150  0.83395050  0.43453200  1
  F  F111  1  0.10141800  0.65836400  0.69535700  1
  F  F112  1  0.23875050  0.34515050  0.89250600  1
  F  F113  1  0.07634600  0.83781900  0.93612500  1
  F  F114  1  0.25227950  0.52139250  0.16289300  1
  F  F115  1  0.25227950  0.47860750  0.66289300  1
  F  F116  1  0.23875050  0.65484950  0.39250600  1
  F  F117  1  0.22982850  0.66101150  0.88954900  1
  F  F118  1  0.42757150  0.49155050  0.33453300  1
  F  F119  1  0.42757150  0.50844950  0.83453300  1
