# generated using pymatgen
data_Zn(AgO2)2
_symmetry_space_group_name_H-M   'P 1'
_cell_length_a   6.07861400
_cell_length_b   11.06726600
_cell_length_c   11.64157800
_cell_angle_alpha   90.00000000
_cell_angle_beta   90.00000000
_cell_angle_gamma   90.00000000
_symmetry_Int_Tables_number   1
_chemical_formula_structural   Zn(AgO2)2
_chemical_formula_sum   'Zn8 Ag16 O32'
_cell_volume   783.17130469
_cell_formula_units_Z   8
loop_
 _symmetry_equiv_pos_site_id
 _symmetry_equiv_pos_as_xyz
  1  'x, y, z'
loop_
 _atom_site_type_symbol
 _atom_site_label
 _atom_site_symmetry_multiplicity
 _atom_site_fract_x
 _atom_site_fract_y
 _atom_site_fract_z
 _atom_site_occupancy
  Zn  Zn0  1  0.75000000  0.75000000  0.75000000  1
  Zn  Zn1  1  0.50000000  0.00000000  0.00000000  1
  Zn  Zn2  1  0.75000000  0.25000000  0.25000000  1
  Zn  Zn3  1  0.50000000  0.50000000  0.50000000  1
  Zn  Zn4  1  0.25000000  0.75000000  0.25000000  1
  Zn  Zn5  1  0.00000000  0.00000000  0.50000000  1
  Zn  Zn6  1  0.25000000  0.25000000  0.75000000  1
  Zn  Zn7  1  0.00000000  0.50000000  0.00000000  1
  Ag  Ag8  1  0.25000000  0.75000000  0.61679700  1
  Ag  Ag9  1  0.00000000  0.00000000  0.86679700  1
  Ag  Ag10  1  0.25000000  0.75000000  0.88320300  1
  Ag  Ag11  1  0.50000000  0.00000000  0.63320300  1
  Ag  Ag12  1  0.25000000  0.25000000  0.11679700  1
  Ag  Ag13  1  0.00000000  0.50000000  0.36679700  1
  Ag  Ag14  1  0.25000000  0.25000000  0.38320300  1
  Ag  Ag15  1  0.50000000  0.50000000  0.13320300  1
  Ag  Ag16  1  0.75000000  0.75000000  0.11679700  1
  Ag  Ag17  1  0.50000000  0.00000000  0.36679700  1
  Ag  Ag18  1  0.75000000  0.75000000  0.38320300  1
  Ag  Ag19  1  0.00000000  0.00000000  0.13320300  1
  Ag  Ag20  1  0.75000000  0.25000000  0.61679700  1
  Ag  Ag21  1  0.50000000  0.50000000  0.86679700  1
  Ag  Ag22  1  0.75000000  0.25000000  0.88320300  1
  Ag  Ag23  1  0.00000000  0.50000000  0.63320300  1
  O  O24  1  0.56667400  0.68032650  0.87346550  1
  O  O25  1  0.18332600  0.93032650  0.62346550  1
  O  O26  1  0.93332600  0.68032650  0.62653450  1
  O  O27  1  0.93332600  0.81967350  0.87346550  1
  O  O28  1  0.31667400  0.56967350  0.62346550  1
  O  O29  1  0.31667400  0.93032650  0.87653450  1
  O  O30  1  0.56667400  0.81967350  0.62653450  1
  O  O31  1  0.18332600  0.56967350  0.87653450  1
  O  O32  1  0.56667400  0.18032650  0.37346550  1
  O  O33  1  0.18332600  0.43032650  0.12346550  1
  O  O34  1  0.93332600  0.18032650  0.12653450  1
  O  O35  1  0.93332600  0.31967350  0.37346550  1
  O  O36  1  0.31667400  0.06967350  0.12346550  1
  O  O37  1  0.31667400  0.43032650  0.37653450  1
  O  O38  1  0.56667400  0.31967350  0.12653450  1
  O  O39  1  0.18332600  0.06967350  0.37653450  1
  O  O40  1  0.06667400  0.68032650  0.37346550  1
  O  O41  1  0.68332600  0.93032650  0.12346550  1
  O  O42  1  0.43332600  0.68032650  0.12653450  1
  O  O43  1  0.43332600  0.81967350  0.37346550  1
  O  O44  1  0.81667400  0.56967350  0.12346550  1
  O  O45  1  0.81667400  0.93032650  0.37653450  1
  O  O46  1  0.06667400  0.81967350  0.12653450  1
  O  O47  1  0.68332600  0.56967350  0.37653450  1
  O  O48  1  0.06667400  0.18032650  0.87346550  1
  O  O49  1  0.68332600  0.43032650  0.62346550  1
  O  O50  1  0.43332600  0.18032650  0.62653450  1
  O  O51  1  0.43332600  0.31967350  0.87346550  1
  O  O52  1  0.81667400  0.06967350  0.62346550  1
  O  O53  1  0.81667400  0.43032650  0.87653450  1
  O  O54  1  0.06667400  0.31967350  0.62653450  1
  O  O55  1  0.68332600  0.06967350  0.87653450  1
