# generated using pymatgen
data_Er3GaS6
_symmetry_space_group_name_H-M   'P 1'
_cell_length_a   10.62106200
_cell_length_b   13.21735400
_cell_length_c   6.42891100
_cell_angle_alpha   90.00000000
_cell_angle_beta   90.00000000
_cell_angle_gamma   90.00000000
_symmetry_Int_Tables_number   1
_chemical_formula_structural   Er3GaS6
_chemical_formula_sum   'Er12 Ga4 S24'
_cell_volume   902.50554611
_cell_formula_units_Z   4
loop_
 _symmetry_equiv_pos_site_id
 _symmetry_equiv_pos_as_xyz
  1  'x, y, z'
loop_
 _atom_site_type_symbol
 _atom_site_label
 _atom_site_symmetry_multiplicity
 _atom_site_fract_x
 _atom_site_fract_y
 _atom_site_fract_z
 _atom_site_occupancy
  Er  Er0  1  0.50000000  0.90260800  0.33665100  1
  Er  Er1  1  0.50000000  0.09739200  0.83665100  1
  Er  Er2  1  0.18496200  0.09929200  0.24669700  1
  Er  Er3  1  0.81503800  0.90070800  0.74669700  1
  Er  Er4  1  0.81503800  0.09929200  0.24669700  1
  Er  Er5  1  0.18496200  0.90070800  0.74669700  1
  Er  Er6  1  0.00000000  0.40260800  0.33665100  1
  Er  Er7  1  0.00000000  0.59739200  0.83665100  1
  Er  Er8  1  0.68496200  0.59929200  0.24669700  1
  Er  Er9  1  0.31503800  0.40070800  0.74669700  1
  Er  Er10  1  0.31503800  0.59929200  0.24669700  1
  Er  Er11  1  0.68496200  0.40070800  0.74669700  1
  Ga  Ga12  1  0.50000000  0.70109400  0.71110400  1
  Ga  Ga13  1  0.50000000  0.29890600  0.21110400  1
  Ga  Ga14  1  0.00000000  0.20109400  0.71110400  1
  Ga  Ga15  1  0.00000000  0.79890600  0.21110400  1
  S  S16  1  0.50000000  0.46039000  0.06356800  1
  S  S17  1  0.50000000  0.53961000  0.56356800  1
  S  S18  1  0.50000000  0.71741200  0.06462400  1
  S  S19  1  0.50000000  0.28258800  0.56462400  1
  S  S20  1  0.66266000  0.96955000  0.04283600  1
  S  S21  1  0.33734000  0.03045000  0.54283600  1
  S  S22  1  0.33734000  0.96955000  0.04283600  1
  S  S23  1  0.66266000  0.03045000  0.54283600  1
  S  S24  1  0.33371900  0.76794600  0.52879400  1
  S  S25  1  0.66628100  0.23205400  0.02879400  1
  S  S26  1  0.66628100  0.76794600  0.52879400  1
  S  S27  1  0.33371900  0.23205400  0.02879400  1
  S  S28  1  0.00000000  0.96039000  0.06356800  1
  S  S29  1  0.00000000  0.03961000  0.56356800  1
  S  S30  1  0.00000000  0.21741200  0.06462400  1
  S  S31  1  0.00000000  0.78258800  0.56462400  1
  S  S32  1  0.16266000  0.46955000  0.04283600  1
  S  S33  1  0.83734000  0.53045000  0.54283600  1
  S  S34  1  0.83734000  0.46955000  0.04283600  1
  S  S35  1  0.16266000  0.53045000  0.54283600  1
  S  S36  1  0.83371900  0.26794600  0.52879400  1
  S  S37  1  0.16628100  0.73205400  0.02879400  1
  S  S38  1  0.16628100  0.26794600  0.52879400  1
  S  S39  1  0.83371900  0.73205400  0.02879400  1
