# generated using pymatgen
data_Ti3(BiO3)4
_symmetry_space_group_name_H-M   'P 1'
_cell_length_a   5.54042800
_cell_length_b   5.45390100
_cell_length_c   16.89268104
_cell_angle_alpha   90.00000000
_cell_angle_beta   99.15696421
_cell_angle_gamma   90.00000000
_symmetry_Int_Tables_number   1
_chemical_formula_structural   Ti3(BiO3)4
_chemical_formula_sum   'Ti6 Bi8 O24'
_cell_volume   503.94015248
_cell_formula_units_Z   2
loop_
 _symmetry_equiv_pos_site_id
 _symmetry_equiv_pos_as_xyz
  1  'x, y, z'
loop_
 _atom_site_type_symbol
 _atom_site_label
 _atom_site_symmetry_multiplicity
 _atom_site_fract_x
 _atom_site_fract_y
 _atom_site_fract_z
 _atom_site_occupancy
  Ti  Ti0  1  0.95450200  0.75133400  0.99758600  1
  Ti  Ti1  1  0.45450200  0.24866600  0.99758600  1
  Ti  Ti2  1  0.82163900  0.75200300  0.74217700  1
  Ti  Ti3  1  0.32163900  0.24799700  0.74217700  1
  Ti  Ti4  1  0.07112800  0.74838600  0.25471200  1
  Ti  Ti5  1  0.57112800  0.25161400  0.25471200  1
  Bi  Bi6  1  0.93270200  0.25043300  0.86607300  1
  Bi  Bi7  1  0.43270200  0.74956700  0.86607300  1
  Bi  Bi8  1  0.78496700  0.27568100  0.57571500  1
  Bi  Bi9  1  0.28496700  0.72431900  0.57571500  1
  Bi  Bi10  1  0.06295700  0.24940200  0.13186900  1
  Bi  Bi11  1  0.56295700  0.75059800  0.13186900  1
  Bi  Bi12  1  0.21514400  0.22476200  0.42210700  1
  Bi  Bi13  1  0.71514400  0.77523800  0.42210700  1
  O  O14  1  0.68372600  0.47434200  0.97794500  1
  O  O15  1  0.18372600  0.52565800  0.97794500  1
  O  O16  1  0.98017900  0.50654500  0.49699500  1
  O  O17  1  0.48017900  0.49345500  0.49699500  1
  O  O18  1  0.84298000  0.82949900  0.88153100  1
  O  O19  1  0.34298000  0.17050100  0.88153100  1
  O  O20  1  0.76146200  0.69189200  0.63732100  1
  O  O21  1  0.26146200  0.30810800  0.63732100  1
  O  O22  1  0.59630200  0.46908900  0.77750500  1
  O  O23  1  0.09630200  0.53091100  0.77750500  1
  O  O24  1  0.50458600  0.94866100  0.74958600  1
  O  O25  1  0.00458600  0.05133900  0.74958600  1
  O  O26  1  0.64608700  0.96775600  0.01533600  1
  O  O27  1  0.14608700  0.03224400  0.01533600  1
  O  O28  1  0.48060300  0.99255800  0.50074200  1
  O  O29  1  0.98060300  0.00744200  0.50074200  1
  O  O30  1  0.95832200  0.67977100  0.11377100  1
  O  O31  1  0.45832200  0.32022900  0.11377100  1
  O  O32  1  0.10886300  0.81469800  0.35904400  1
  O  O33  1  0.60886300  0.18530200  0.35904400  1
  O  O34  1  0.80367300  0.02194800  0.21870300  1
  O  O35  1  0.30367300  0.97805200  0.21870300  1
  O  O36  1  0.76177800  0.53978500  0.24708200  1
  O  O37  1  0.26177800  0.46021500  0.24708200  1
