# generated using pymatgen
data_Er2TeO6
_symmetry_space_group_name_H-M   'P 1'
_cell_length_a   9.15262992
_cell_length_b   9.15262992
_cell_length_c   5.13741000
_cell_angle_alpha   90.00000000
_cell_angle_beta   90.00000000
_cell_angle_gamma   120.00000000
_symmetry_Int_Tables_number   1
_chemical_formula_structural   Er2TeO6
_chemical_formula_sum   'Er6 Te3 O18'
_cell_volume   372.70623934
_cell_formula_units_Z   3
loop_
 _symmetry_equiv_pos_site_id
 _symmetry_equiv_pos_as_xyz
  1  'x, y, z'
loop_
 _atom_site_type_symbol
 _atom_site_label
 _atom_site_symmetry_multiplicity
 _atom_site_fract_x
 _atom_site_fract_y
 _atom_site_fract_z
 _atom_site_occupancy
  Er  Er0  1  0.00000000  0.62492050  0.00000000  1
  Er  Er1  1  0.28742250  0.00000000  0.50000000  1
  Er  Er2  1  0.00000000  0.28742250  0.50000000  1
  Er  Er3  1  0.62492050  0.00000000  0.00000000  1
  Er  Er4  1  0.37507950  0.37507950  0.00000000  1
  Er  Er5  1  0.71257750  0.71257750  0.50000000  1
  Te  Te6  1  0.33333333  0.66666667  0.50703600  1
  Te  Te7  1  0.66666667  0.33333333  0.49296400  1
  Te  Te8  1  0.00000000  0.00000000  0.00000000  1
  O  O9  1  0.08265433  0.88089267  0.78808700  1
  O  O10  1  0.20176167  0.11910733  0.21191300  1
  O  O11  1  0.22152233  0.75868967  0.29226700  1
  O  O12  1  0.46283267  0.24131033  0.70773300  1
  O  O13  1  0.13165833  0.54275367  0.72342400  1
  O  O14  1  0.58890467  0.45724633  0.27657600  1
  O  O15  1  0.54275367  0.13165833  0.27657600  1
  O  O16  1  0.41109533  0.86834167  0.72342400  1
  O  O17  1  0.24131033  0.46283267  0.29226700  1
  O  O18  1  0.77847767  0.53716733  0.70773300  1
  O  O19  1  0.11910733  0.20176167  0.78808700  1
  O  O20  1  0.91734567  0.79823833  0.21191300  1
  O  O21  1  0.53716733  0.77847767  0.29226700  1
  O  O22  1  0.75868967  0.22152233  0.70773300  1
  O  O23  1  0.45724633  0.58890467  0.72342400  1
  O  O24  1  0.86834167  0.41109533  0.27657600  1
  O  O25  1  0.88089267  0.08265433  0.21191300  1
  O  O26  1  0.79823833  0.91734567  0.78808700  1
