# generated using pymatgen
data_TiFe5(PO4)6
_symmetry_space_group_name_H-M   'P 1'
_cell_length_a   8.65061695
_cell_length_b   8.65061695
_cell_length_c   20.52890540
_cell_angle_alpha   90.00000000
_cell_angle_beta   90.00000000
_cell_angle_gamma   120.00000000
_symmetry_Int_Tables_number   1
_chemical_formula_structural   TiFe5(PO4)6
_chemical_formula_sum   'Ti3 Fe15 P18 O72'
_cell_volume   1330.42558677
_cell_formula_units_Z   3
loop_
 _symmetry_equiv_pos_site_id
 _symmetry_equiv_pos_as_xyz
  1  'x, y, z'
loop_
 _atom_site_type_symbol
 _atom_site_label
 _atom_site_symmetry_multiplicity
 _atom_site_fract_x
 _atom_site_fract_y
 _atom_site_fract_z
 _atom_site_occupancy
  Ti  Ti0  1  0.00000000  0.00000000  0.14298400  1
  Ti  Ti1  1  0.66666667  0.33333333  0.47631733  1
  Ti  Ti2  1  0.33333333  0.66666667  0.80965067  1
  Fe  Fe3  1  0.00000000  0.00000000  0.99868667  1
  Fe  Fe4  1  0.00000000  0.00000000  0.64660733  1
  Fe  Fe5  1  0.00000000  0.00000000  0.49914833  1
  Fe  Fe6  1  0.00000000  0.00000000  0.85578967  1
  Fe  Fe7  1  0.00000000  0.00000000  0.35367833  1
  Fe  Fe8  1  0.66666667  0.33333333  0.33202000  1
  Fe  Fe9  1  0.66666667  0.33333333  0.97994067  1
  Fe  Fe10  1  0.66666667  0.33333333  0.83248167  1
  Fe  Fe11  1  0.66666667  0.33333333  0.18912300  1
  Fe  Fe12  1  0.66666667  0.33333333  0.68701167  1
  Fe  Fe13  1  0.33333333  0.66666667  0.66535333  1
  Fe  Fe14  1  0.33333333  0.66666667  0.31327400  1
  Fe  Fe15  1  0.33333333  0.66666667  0.16581500  1
  Fe  Fe16  1  0.33333333  0.66666667  0.52245633  1
  Fe  Fe17  1  0.33333333  0.66666667  0.02034500  1
  P  P18  1  0.66850967  0.03841933  0.58294533  1
  P  P19  1  0.36990967  0.33149033  0.58294533  1
  P  P20  1  0.96158067  0.63009033  0.58294533  1
  P  P21  1  0.03836600  0.37033800  0.41783700  1
  P  P22  1  0.62966200  0.66802800  0.41783700  1
  P  P23  1  0.33197200  0.96163400  0.41783700  1
  P  P24  1  0.33517633  0.37175267  0.91627867  1
  P  P25  1  0.03657633  0.66482367  0.91627867  1
  P  P26  1  0.62824733  0.96342367  0.91627867  1
  P  P27  1  0.70503267  0.70367133  0.75117033  1
  P  P28  1  0.29632867  0.00136133  0.75117033  1
  P  P29  1  0.99863867  0.29496733  0.75117033  1
  P  P30  1  0.00184300  0.70508600  0.24961200  1
  P  P31  1  0.70324300  0.99815700  0.24961200  1
  P  P32  1  0.29491400  0.29675700  0.24961200  1
  P  P33  1  0.37169933  0.03700467  0.08450367  1
  P  P34  1  0.96299533  0.33469467  0.08450367  1
  P  P35  1  0.66530533  0.62830067  0.08450367  1
  O  O36  1  0.79533767  0.98555533  0.31072133  1
  O  O37  1  0.19021767  0.20466233  0.31072133  1
  O  O38  1  0.01444467  0.80978233  0.31072133  1
  O  O39  1  0.50389600  0.84997500  0.59105000  1
  O  O40  1  0.99123767  0.80723833  0.18921833  1
  O  O41  1  0.83789933  0.01968067  0.57070367  1
  O  O42  1  0.34607900  0.49610400  0.59105000  1
  O  O43  1  0.18178133  0.16210067  0.57070367  1
  O  O44  1  0.13223800  0.47326100  0.47888200  1
  O  O45  1  0.98031933  0.81821867  0.57070367  1
  O  O46  1  0.84663167  0.34409133  0.40982833  1
  O  O47  1  0.52673900  0.65897700  0.47888200  1
  O  O48  1  0.81600067  0.00876233  0.18921833  1
  O  O49  1  0.15002500  0.65392100  0.59105000  1
  O  O50  1  0.01411300  0.17833000  0.42729700  1
  O  O51  1  0.19276167  0.18399933  0.18921833  1
  O  O52  1  0.82167000  0.83578300  0.42729700  1
  O  O53  1  0.65590867  0.50254033  0.40982833  1
  O  O54  1  0.16421700  0.98588700  0.42729700  1
  O  O55  1  0.34102300  0.86776200  0.47888200  1
  O  O56  1  0.49745967  0.15336833  0.40982833  1
  O  O57  1  0.99196500  0.19451100  0.68921100  1
  O  O58  1  0.80548900  0.79745400  0.68921100  1
  O  O59  1  0.20254600  0.00803500  0.68921100  1
  O  O60  1  0.46200433  0.31888867  0.64405467  1
  O  O61  1  0.85688433  0.53799567  0.64405467  1
  O  O62  1  0.68111133  0.14311567  0.64405467  1
  O  O63  1  0.17056267  0.18330833  0.92438333  1
  O  O64  1  0.65790433  0.14057167  0.52255167  1
  O  O65  1  0.50456600  0.35301400  0.90403700  1
  O  O66  1  0.01274567  0.82943733  0.92438333  1
  O  O67  1  0.84844800  0.49543400  0.90403700  1
  O  O68  1  0.79890467  0.80659433  0.81221533  1
  O  O69  1  0.64698600  0.15155200  0.90403700  1
  O  O70  1  0.51329833  0.67742467  0.74316167  1
  O  O71  1  0.19340567  0.99231033  0.81221533  1
  O  O72  1  0.48266733  0.34209567  0.52255167  1
  O  O73  1  0.81669167  0.98725433  0.92438333  1
  O  O74  1  0.68077967  0.51166333  0.76063033  1
  O  O75  1  0.85942833  0.51733267  0.52255167  1
  O  O76  1  0.48833667  0.16911633  0.76063033  1
  O  O77  1  0.32257533  0.83587367  0.74316167  1
  O  O78  1  0.83088367  0.31922033  0.76063033  1
  O  O79  1  0.00768967  0.20109533  0.81221533  1
  O  O80  1  0.16412633  0.48670167  0.74316167  1
  O  O81  1  0.65863167  0.52784433  0.02254433  1
  O  O82  1  0.47215567  0.13078733  0.02254433  1
  O  O83  1  0.86921267  0.34136833  0.02254433  1
  O  O84  1  0.12867100  0.65222200  0.97738800  1
  O  O85  1  0.52355100  0.87132900  0.97738800  1
  O  O86  1  0.34777800  0.47644900  0.97738800  1
  O  O87  1  0.83722933  0.51664167  0.25771667  1
  O  O88  1  0.32457100  0.47390500  0.85588500  1
  O  O89  1  0.17123267  0.68634733  0.23737033  1
  O  O90  1  0.67941233  0.16277067  0.25771667  1
  O  O91  1  0.51511467  0.82876733  0.23737033  1
  O  O92  1  0.46557133  0.13992767  0.14554867  1
  O  O93  1  0.31365267  0.48488533  0.23737033  1
  O  O94  1  0.17996500  0.01075800  0.07649500  1
  O  O95  1  0.86007233  0.32564367  0.14554867  1
  O  O96  1  0.14933400  0.67542900  0.85588500  1
  O  O97  1  0.48335833  0.32058767  0.25771667  1
  O  O98  1  0.34744633  0.84499667  0.09396367  1
  O  O99  1  0.52609500  0.85066600  0.85588500  1
  O  O100  1  0.15500333  0.50244967  0.09396367  1
  O  O101  1  0.98924200  0.16920700  0.07649500  1
  O  O102  1  0.49755033  0.65255367  0.09396367  1
  O  O103  1  0.67435633  0.53442867  0.14554867  1
  O  O104  1  0.83079300  0.82003500  0.07649500  1
  O  O105  1  0.32529833  0.86117767  0.35587767  1
  O  O106  1  0.13882233  0.46412067  0.35587767  1
  O  O107  1  0.53587933  0.67470167  0.35587767  1
