# generated using pymatgen
data_BaSr2I6
_symmetry_space_group_name_H-M   'P 1'
_cell_length_a   8.50314100
_cell_length_b   8.27989800
_cell_length_c   24.78888260
_cell_angle_alpha   90.00000000
_cell_angle_beta   92.42801609
_cell_angle_gamma   90.00000000
_symmetry_Int_Tables_number   1
_chemical_formula_structural   BaSr2I6
_chemical_formula_sum   'Ba4 Sr8 I24'
_cell_volume   1743.69791562
_cell_formula_units_Z   4
loop_
 _symmetry_equiv_pos_site_id
 _symmetry_equiv_pos_as_xyz
  1  'x, y, z'
loop_
 _atom_site_type_symbol
 _atom_site_label
 _atom_site_symmetry_multiplicity
 _atom_site_fract_x
 _atom_site_fract_y
 _atom_site_fract_z
 _atom_site_occupancy
  Ba  Ba0  1  0.83325200  0.53854500  0.90596200  1
  Ba  Ba1  1  0.83325200  0.96145500  0.40596200  1
  Ba  Ba2  1  0.16674800  0.03854500  0.59403800  1
  Ba  Ba3  1  0.16674800  0.46145500  0.09403800  1
  Sr  Sr4  1  0.76768300  0.03815100  0.75703100  1
  Sr  Sr5  1  0.66171700  0.47009600  0.59276600  1
  Sr  Sr6  1  0.76768300  0.46184900  0.25703100  1
  Sr  Sr7  1  0.66171700  0.02990400  0.09276600  1
  Sr  Sr8  1  0.33828300  0.97009600  0.90723400  1
  Sr  Sr9  1  0.23231700  0.53815100  0.74296900  1
  Sr  Sr10  1  0.33828300  0.52990400  0.40723400  1
  Sr  Sr11  1  0.23231700  0.96184900  0.24296900  1
  I  I12  1  0.95475100  0.30495200  0.68012500  1
  I  I13  1  0.89561400  0.78577300  0.66033500  1
  I  I14  1  0.86107600  0.21364900  0.51794200  1
  I  I15  1  0.95475100  0.19504800  0.18012500  1
  I  I16  1  0.89561400  0.71422700  0.16033500  1
  I  I17  1  0.86107600  0.28635100  0.01794200  1
  I  I18  1  0.63227300  0.80550300  0.98286500  1
  I  I19  1  0.59594600  0.22657300  0.85448400  1
  I  I20  1  0.53536100  0.73920300  0.81316600  1
  I  I21  1  0.46463900  0.23920300  0.68683400  1
  I  I22  1  0.63227300  0.69449700  0.48286500  1
  I  I23  1  0.40405400  0.72657300  0.64551600  1
  I  I24  1  0.59594600  0.27342700  0.35448400  1
  I  I25  1  0.36772700  0.30550300  0.51713500  1
  I  I26  1  0.53536100  0.76079700  0.31316600  1
  I  I27  1  0.46463900  0.26079700  0.18683400  1
  I  I28  1  0.40405400  0.77342700  0.14551600  1
  I  I29  1  0.36772700  0.19449700  0.01713500  1
  I  I30  1  0.13892400  0.71364900  0.98205800  1
  I  I31  1  0.10438600  0.28577300  0.83966500  1
  I  I32  1  0.04524900  0.80495200  0.81987500  1
  I  I33  1  0.13892400  0.78635100  0.48205800  1
  I  I34  1  0.10438600  0.21422700  0.33966500  1
  I  I35  1  0.04524900  0.69504800  0.31987500  1
