# generated using pymatgen
data_NaPH2OF6
_symmetry_space_group_name_H-M   'P 1'
_cell_length_a   6.11851700
_cell_length_b   7.98767100
_cell_length_c   10.71487400
_cell_angle_alpha   90.00000000
_cell_angle_beta   90.00000000
_cell_angle_gamma   90.00000000
_symmetry_Int_Tables_number   1
_chemical_formula_structural   NaPH2OF6
_chemical_formula_sum   'Na4 P4 H8 O4 F24'
_cell_volume   523.66483115
_cell_formula_units_Z   4
loop_
 _symmetry_equiv_pos_site_id
 _symmetry_equiv_pos_as_xyz
  1  'x, y, z'
loop_
 _atom_site_type_symbol
 _atom_site_label
 _atom_site_symmetry_multiplicity
 _atom_site_fract_x
 _atom_site_fract_y
 _atom_site_fract_z
 _atom_site_occupancy
  Na  Na0  1  0.75000000  0.25000000  0.76159000  1
  Na  Na1  1  0.75000000  0.75000000  0.73841000  1
  Na  Na2  1  0.25000000  0.25000000  0.26159000  1
  Na  Na3  1  0.25000000  0.75000000  0.23841000  1
  P  P4  1  0.00000000  0.00000000  0.00000000  1
  P  P5  1  0.50000000  0.50000000  0.00000000  1
  P  P6  1  0.00000000  0.00000000  0.50000000  1
  P  P7  1  0.50000000  0.50000000  0.50000000  1
  H  H8  1  0.06977400  0.50491100  0.82286000  1
  H  H9  1  0.43022600  0.99508900  0.82286000  1
  H  H10  1  0.43022600  0.00491100  0.67714000  1
  H  H11  1  0.06977400  0.49508900  0.67714000  1
  H  H12  1  0.93022600  0.50491100  0.32286000  1
  H  H13  1  0.56977400  0.99508900  0.32286000  1
  H  H14  1  0.56977400  0.00491100  0.17714000  1
  H  H15  1  0.93022600  0.49508900  0.17714000  1
  O  O16  1  0.52531000  0.00000000  0.75000000  1
  O  O17  1  0.97469000  0.50000000  0.75000000  1
  O  O18  1  0.47469000  0.00000000  0.25000000  1
  O  O19  1  0.02531000  0.50000000  0.25000000  1
  F  F20  1  0.23559100  0.52951400  0.99467900  1
  F  F21  1  0.26440900  0.97048600  0.99467900  1
  F  F22  1  0.53271100  0.65077200  0.89800700  1
  F  F23  1  0.96728900  0.84922800  0.89800700  1
  F  F24  1  0.02087400  0.13668600  0.88585000  1
  F  F25  1  0.47912600  0.36331400  0.88585000  1
  F  F26  1  0.47912600  0.63668600  0.61415000  1
  F  F27  1  0.02087400  0.86331400  0.61415000  1
  F  F28  1  0.96728900  0.15077200  0.60199300  1
  F  F29  1  0.53271100  0.34922800  0.60199300  1
  F  F30  1  0.26440900  0.02951400  0.50532100  1
  F  F31  1  0.23559100  0.47048600  0.50532100  1
  F  F32  1  0.76440900  0.52951400  0.49467900  1
  F  F33  1  0.73559100  0.97048600  0.49467900  1
  F  F34  1  0.46728900  0.65077200  0.39800700  1
  F  F35  1  0.03271100  0.84922800  0.39800700  1
  F  F36  1  0.97912600  0.13668600  0.38585000  1
  F  F37  1  0.52087400  0.36331400  0.38585000  1
  F  F38  1  0.52087400  0.63668600  0.11415000  1
  F  F39  1  0.97912600  0.86331400  0.11415000  1
  F  F40  1  0.03271100  0.15077200  0.10199300  1
  F  F41  1  0.46728900  0.34922800  0.10199300  1
  F  F42  1  0.73559100  0.02951400  0.00532100  1
  F  F43  1  0.76440900  0.47048600  0.00532100  1
