# generated using pymatgen
data_V4OF11
_symmetry_space_group_name_H-M   'P 1'
_cell_length_a   9.56802800
_cell_length_b   5.29878400
_cell_length_c   17.69359032
_cell_angle_alpha   90.00000000
_cell_angle_beta   102.87880912
_cell_angle_gamma   90.00000000
_symmetry_Int_Tables_number   1
_chemical_formula_structural   V4OF11
_chemical_formula_sum   'V16 O4 F44'
_cell_volume   874.47945209
_cell_formula_units_Z   4
loop_
 _symmetry_equiv_pos_site_id
 _symmetry_equiv_pos_as_xyz
  1  'x, y, z'
loop_
 _atom_site_type_symbol
 _atom_site_label
 _atom_site_symmetry_multiplicity
 _atom_site_fract_x
 _atom_site_fract_y
 _atom_site_fract_z
 _atom_site_occupancy
  V  V0  1  0.68919450  0.93368550  0.56332700  1
  V  V1  1  0.18875050  0.93905650  0.06312500  1
  V  V2  1  0.31080550  0.93368550  0.43667300  1
  V  V3  1  0.81124950  0.93905650  0.93687500  1
  V  V4  1  0.45336100  0.42934200  0.31745200  1
  V  V5  1  0.43180500  0.93956000  0.81093100  1
  V  V6  1  0.54663900  0.42934200  0.68254800  1
  V  V7  1  0.56819500  0.93956000  0.18906900  1
  V  V8  1  0.18919450  0.43368550  0.56332700  1
  V  V9  1  0.68875050  0.43905650  0.06312500  1
  V  V10  1  0.81080550  0.43368550  0.43667300  1
  V  V11  1  0.31124950  0.43905650  0.93687500  1
  V  V12  1  0.95336100  0.92934200  0.31745200  1
  V  V13  1  0.93180500  0.43956000  0.81093100  1
  V  V14  1  0.04663900  0.92934200  0.68254800  1
  V  V15  1  0.06819500  0.43956000  0.18906900  1
  O  O16  1  0.38056550  0.36255750  0.62860100  1
  O  O17  1  0.61943450  0.36255750  0.37139900  1
  O  O18  1  0.88056550  0.86255750  0.62860100  1
  O  O19  1  0.11943450  0.86255750  0.37139900  1
  F  F20  1  0.60137250  0.63398850  0.60019000  1
  F  F21  1  0.37834850  0.83580050  0.12474700  1
  F  F22  1  0.50000000  0.02688800  0.50000000  1
  F  F23  1  0.39862750  0.63398850  0.39981000  1
  F  F24  1  0.10178700  0.63665000  0.10131400  1
  F  F25  1  0.89821300  0.63665000  0.89868600  1
  F  F26  1  0.64463850  0.13764750  0.64914900  1
  F  F27  1  0.27050700  0.73766800  0.52339600  1
  F  F28  1  0.27583150  0.24126950  0.02527400  1
  F  F29  1  0.47471800  0.23918000  0.22548900  1
  F  F30  1  0.00000000  0.04235700  0.00000000  1
  F  F31  1  0.35536150  0.13764750  0.35085100  1
  F  F32  1  0.15350550  0.13667050  0.15160900  1
  F  F33  1  0.84649450  0.13667050  0.84839100  1
  F  F34  1  0.47768350  0.74179250  0.72518500  1
  F  F35  1  0.52231650  0.74179250  0.27481500  1
  F  F36  1  0.72949300  0.73766800  0.47660400  1
  F  F37  1  0.72416850  0.24126950  0.97472600  1
  F  F38  1  0.62165150  0.83580050  0.87525300  1
  F  F39  1  0.74128850  0.53097650  0.74643500  1
  F  F40  1  0.25871150  0.53097650  0.25356500  1
  F  F41  1  0.52528200  0.23918000  0.77451100  1
  F  F42  1  0.10137250  0.13398850  0.60019000  1
  F  F43  1  0.87834850  0.33580050  0.12474700  1
  F  F44  1  0.00000000  0.52688800  0.50000000  1
  F  F45  1  0.89862750  0.13398850  0.39981000  1
  F  F46  1  0.60178700  0.13665000  0.10131400  1
  F  F47  1  0.39821300  0.13665000  0.89868600  1
  F  F48  1  0.14463850  0.63764750  0.64914900  1
  F  F49  1  0.77050700  0.23766800  0.52339600  1
  F  F50  1  0.77583150  0.74126950  0.02527400  1
  F  F51  1  0.97471800  0.73918000  0.22548900  1
  F  F52  1  0.50000000  0.54235700  0.00000000  1
  F  F53  1  0.85536150  0.63764750  0.35085100  1
  F  F54  1  0.65350550  0.63667050  0.15160900  1
  F  F55  1  0.34649450  0.63667050  0.84839100  1
  F  F56  1  0.97768350  0.24179250  0.72518500  1
  F  F57  1  0.02231650  0.24179250  0.27481500  1
  F  F58  1  0.22949300  0.23766800  0.47660400  1
  F  F59  1  0.22416850  0.74126950  0.97472600  1
  F  F60  1  0.12165150  0.33580050  0.87525300  1
  F  F61  1  0.24128850  0.03097650  0.74643500  1
  F  F62  1  0.75871150  0.03097650  0.25356500  1
  F  F63  1  0.02528200  0.73918000  0.77451100  1
