# generated using pymatgen
data_Cs2O2
_symmetry_space_group_name_H-M   'P 1'
_cell_length_a   4.39469400
_cell_length_b   6.57835800
_cell_length_c   7.64205000
_cell_angle_alpha   90.00000000
_cell_angle_beta   90.00000000
_cell_angle_gamma   90.00000000
_symmetry_Int_Tables_number   1
_chemical_formula_structural   Cs2O2
_chemical_formula_sum   'Cs4 O4'
_cell_volume   220.93067534
_cell_formula_units_Z   2
loop_
 _symmetry_equiv_pos_site_id
 _symmetry_equiv_pos_as_xyz
  1  'x, y, z'
loop_
 _atom_site_type_symbol
 _atom_site_label
 _atom_site_symmetry_multiplicity
 _atom_site_fract_x
 _atom_site_fract_y
 _atom_site_fract_z
 _atom_site_occupancy
  Cs  Cs0  1  0.00000000  0.00000000  0.25627600  1
  Cs  Cs1  1  0.00000000  0.00000000  0.74372400  1
  Cs  Cs2  1  0.50000000  0.50000000  0.75627600  1
  Cs  Cs3  1  0.50000000  0.50000000  0.24372400  1
  O  O4  1  0.50000000  0.11535100  0.50000000  1
  O  O5  1  0.50000000  0.88464900  0.50000000  1
  O  O6  1  0.00000000  0.61535100  0.00000000  1
  O  O7  1  0.00000000  0.38464900  0.00000000  1
