# generated using pymatgen
data_MgH12SeO10
_symmetry_space_group_name_H-M   'P 1'
_cell_length_a   10.32983600
_cell_length_b   7.42853400
_cell_length_c   25.15163259
_cell_angle_alpha   90.00000000
_cell_angle_beta   98.75126647
_cell_angle_gamma   90.00000000
_symmetry_Int_Tables_number   1
_chemical_formula_structural   MgH12SeO10
_chemical_formula_sum   'Mg8 H96 Se8 O80'
_cell_volume   1907.55500200
_cell_formula_units_Z   8
loop_
 _symmetry_equiv_pos_site_id
 _symmetry_equiv_pos_as_xyz
  1  'x, y, z'
loop_
 _atom_site_type_symbol
 _atom_site_label
 _atom_site_symmetry_multiplicity
 _atom_site_fract_x
 _atom_site_fract_y
 _atom_site_fract_z
 _atom_site_occupancy
  Mg  Mg0  1  0.00000000  0.44455100  0.75000000  1
  Mg  Mg1  1  0.00000000  0.50000000  0.00000000  1
  Mg  Mg2  1  0.00000000  0.55544900  0.25000000  1
  Mg  Mg3  1  0.00000000  0.50000000  0.50000000  1
  Mg  Mg4  1  0.50000000  0.94455100  0.75000000  1
  Mg  Mg5  1  0.50000000  0.00000000  0.00000000  1
  Mg  Mg6  1  0.50000000  0.05544900  0.25000000  1
  Mg  Mg7  1  0.50000000  0.00000000  0.50000000  1
  H  H8  1  0.20632950  0.22603350  0.72918000  1
  H  H9  1  0.14803050  0.68863850  0.57951500  1
  H  H10  1  0.16558550  0.60866050  0.69258200  1
  H  H11  1  0.26902500  0.52225700  0.00186300  1
  H  H12  1  0.12353850  0.29603250  0.58513100  1
  H  H13  1  0.16536150  0.33062750  0.83843700  1
  H  H14  1  0.20096850  0.62710950  0.94939400  1
  H  H15  1  0.15397350  0.54547650  0.84386900  1
  H  H16  1  0.02947150  0.81663850  0.55327600  1
  H  H17  1  0.07269750  0.14224950  0.69968500  1
  H  H18  1  0.06452050  0.75630950  0.70376100  1
  H  H19  1  0.98795850  0.20379450  0.56180500  1
  H  H20  1  0.20632950  0.77396650  0.22918000  1
  H  H21  1  0.14803050  0.31136150  0.07951500  1
  H  H22  1  0.16558550  0.39133950  0.19258200  1
  H  H23  1  0.26902500  0.47774300  0.50186300  1
  H  H24  1  0.12353850  0.70396750  0.08513100  1
  H  H25  1  0.16536150  0.66937250  0.33843700  1
  H  H26  1  0.20096850  0.37289050  0.44939400  1
  H  H27  1  0.15397350  0.45452350  0.34386900  1
  H  H28  1  0.01204150  0.20379450  0.93819500  1
  H  H29  1  0.02947150  0.18336150  0.05327600  1
  H  H30  1  0.07269750  0.85775050  0.19968500  1
  H  H31  1  0.93547950  0.75630950  0.79623900  1
  H  H32  1  0.06452050  0.24369050  0.20376100  1
  H  H33  1  0.92730250  0.14224950  0.80031500  1
  H  H34  1  0.97052850  0.81663850  0.94672400  1
  H  H35  1  0.98795850  0.79620550  0.06180500  1
  H  H36  1  0.84602650  0.54547650  0.65613100  1
  H  H37  1  0.79903150  0.62710950  0.55060600  1
  H  H38  1  0.83463850  0.33062750  0.66156300  1
  H  H39  1  0.87646150  0.29603250  0.91486900  1
  H  H40  1  0.73097500  0.52225700  0.49813700  1
  H  H41  1  0.83441450  0.60866050  0.80741800  1
  H  H42  1  0.85196950  0.68863850  0.92048500  1
  H  H43  1  0.79367050  0.22603350  0.77082000  1
  H  H44  1  0.01204150  0.79620550  0.43819500  1
  H  H45  1  0.93547950  0.24369050  0.29623900  1
  H  H46  1  0.92730250  0.85775050  0.30031500  1
  H  H47  1  0.97052850  0.18336150  0.44672400  1
  H  H48  1  0.84602650  0.45452350  0.15613100  1
  H  H49  1  0.79903150  0.37289050  0.05060600  1
  H  H50  1  0.83463850  0.66937250  0.16156300  1
  H  H51  1  0.87646150  0.70396750  0.41486900  1
  H  H52  1  0.73097500  0.47774300  0.99813700  1
  H  H53  1  0.83441450  0.39133950  0.30741800  1
  H  H54  1  0.85196950  0.31136150  0.42048500  1
  H  H55  1  0.79367050  0.77396650  0.27082000  1
  H  H56  1  0.70632950  0.72603350  0.72918000  1
  H  H57  1  0.64803050  0.18863850  0.57951500  1
  H  H58  1  0.66558550  0.10866050  0.69258200  1
  H  H59  1  0.76902500  0.02225700  0.00186300  1
  H  H60  1  0.62353850  0.79603250  0.58513100  1
  H  H61  1  0.66536150  0.83062750  0.83843700  1
  H  H62  1  0.70096850  0.12710950  0.94939400  1
  H  H63  1  0.65397350  0.04547650  0.84386900  1
  H  H64  1  0.52947150  0.31663850  0.55327600  1
  H  H65  1  0.57269750  0.64224950  0.69968500  1
  H  H66  1  0.56452050  0.25630950  0.70376100  1
  H  H67  1  0.48795850  0.70379450  0.56180500  1
  H  H68  1  0.70632950  0.27396650  0.22918000  1
  H  H69  1  0.64803050  0.81136150  0.07951500  1
  H  H70  1  0.66558550  0.89133950  0.19258200  1
  H  H71  1  0.76902500  0.97774300  0.50186300  1
  H  H72  1  0.62353850  0.20396750  0.08513100  1
  H  H73  1  0.66536150  0.16937250  0.33843700  1
  H  H74  1  0.70096850  0.87289050  0.44939400  1
  H  H75  1  0.65397350  0.95452350  0.34386900  1
  H  H76  1  0.51204150  0.70379450  0.93819500  1
  H  H77  1  0.52947150  0.68336150  0.05327600  1
  H  H78  1  0.57269750  0.35775050  0.19968500  1
  H  H79  1  0.43547950  0.25630950  0.79623900  1
  H  H80  1  0.56452050  0.74369050  0.20376100  1
  H  H81  1  0.42730250  0.64224950  0.80031500  1
  H  H82  1  0.47052850  0.31663850  0.94672400  1
  H  H83  1  0.48795850  0.29620550  0.06180500  1
  H  H84  1  0.34602650  0.04547650  0.65613100  1
  H  H85  1  0.29903150  0.12710950  0.55060600  1
  H  H86  1  0.33463850  0.83062750  0.66156300  1
  H  H87  1  0.37646150  0.79603250  0.91486900  1
  H  H88  1  0.23097500  0.02225700  0.49813700  1
  H  H89  1  0.33441450  0.10866050  0.80741800  1
  H  H90  1  0.35196950  0.18863850  0.92048500  1
  H  H91  1  0.29367050  0.72603350  0.77082000  1
  H  H92  1  0.51204150  0.29620550  0.43819500  1
  H  H93  1  0.43547950  0.74369050  0.29623900  1
  H  H94  1  0.42730250  0.35775050  0.30031500  1
  H  H95  1  0.47052850  0.68336150  0.44672400  1
  H  H96  1  0.34602650  0.95452350  0.15613100  1
  H  H97  1  0.29903150  0.87289050  0.05060600  1
  H  H98  1  0.33463850  0.16937250  0.16156300  1
  H  H99  1  0.37646150  0.20396750  0.41486900  1
  H  H100  1  0.23097500  0.97774300  0.99813700  1
  H  H101  1  0.33441450  0.89133950  0.30741800  1
  H  H102  1  0.35196950  0.81136150  0.42048500  1
  H  H103  1  0.29367050  0.27396650  0.27082000  1
  Se  Se104  1  0.36724750  0.45009250  0.62329900  1
  Se  Se105  1  0.36724750  0.54990750  0.12329900  1
  Se  Se106  1  0.63275250  0.45009250  0.87670100  1
  Se  Se107  1  0.63275250  0.54990750  0.37670100  1
  Se  Se108  1  0.86724750  0.95009250  0.62329900  1
  Se  Se109  1  0.86724750  0.04990750  0.12329900  1
  Se  Se110  1  0.13275250  0.95009250  0.87670100  1
  Se  Se111  1  0.13275250  0.04990750  0.37670100  1
  O  O112  1  0.41412600  0.49216700  0.56303600  1
  O  O113  1  0.26445100  0.61422800  0.63690200  1
  O  O114  1  0.41412600  0.50783300  0.06303600  1
  O  O115  1  0.21101650  0.75098350  0.88183400  1
  O  O116  1  0.08235050  0.70946550  0.54726300  1
  O  O117  1  0.26445100  0.38577200  0.13690200  1
  O  O118  1  0.11282600  0.24929900  0.71945600  1
  O  O119  1  0.11313100  0.64871100  0.72024100  1
  O  O120  1  0.13521250  0.44258750  0.81922100  1
  O  O121  1  0.18610150  0.54213550  0.97793900  1
  O  O122  1  0.03777000  0.31824000  0.56292200  1
  O  O123  1  0.99680400  0.94464700  0.67176600  1
  O  O124  1  0.21101650  0.24901650  0.38183400  1
  O  O125  1  0.00319600  0.94464700  0.82823400  1
  O  O126  1  0.08235050  0.29053450  0.04726300  1
  O  O127  1  0.11282600  0.75070100  0.21945600  1
  O  O128  1  0.11313100  0.35128900  0.22024100  1
  O  O129  1  0.13521250  0.55741250  0.31922100  1
  O  O130  1  0.18610150  0.45786450  0.47793900  1
  O  O131  1  0.03777000  0.68176000  0.06292200  1
  O  O132  1  0.96223000  0.31824000  0.93707800  1
  O  O133  1  0.81389850  0.54213550  0.52206100  1
  O  O134  1  0.86478750  0.44258750  0.68077900  1
  O  O135  1  0.88686900  0.64871100  0.77975900  1
  O  O136  1  0.88717400  0.24929900  0.78054400  1
  O  O137  1  0.91764950  0.70946550  0.95273700  1
  O  O138  1  0.99680400  0.05535300  0.17176600  1
  O  O139  1  0.78898350  0.75098350  0.61816600  1
  O  O140  1  0.00319600  0.05535300  0.32823400  1
  O  O141  1  0.96223000  0.68176000  0.43707800  1
  O  O142  1  0.81389850  0.45786450  0.02206100  1
  O  O143  1  0.86478750  0.55741250  0.18077900  1
  O  O144  1  0.88686900  0.35128900  0.27975900  1
  O  O145  1  0.88717400  0.75070100  0.28054400  1
  O  O146  1  0.73554900  0.61422800  0.86309800  1
  O  O147  1  0.91764950  0.29053450  0.45273700  1
  O  O148  1  0.78898350  0.24901650  0.11816600  1
  O  O149  1  0.58587400  0.49216700  0.93696400  1
  O  O150  1  0.73554900  0.38577200  0.36309800  1
  O  O151  1  0.58587400  0.50783300  0.43696400  1
  O  O152  1  0.91412600  0.99216700  0.56303600  1
  O  O153  1  0.76445100  0.11422800  0.63690200  1
  O  O154  1  0.91412600  0.00783300  0.06303600  1
  O  O155  1  0.71101650  0.25098350  0.88183400  1
  O  O156  1  0.58235050  0.20946550  0.54726300  1
  O  O157  1  0.76445100  0.88577200  0.13690200  1
  O  O158  1  0.61282600  0.74929900  0.71945600  1
  O  O159  1  0.61313100  0.14871100  0.72024100  1
  O  O160  1  0.63521250  0.94258750  0.81922100  1
  O  O161  1  0.68610150  0.04213550  0.97793900  1
  O  O162  1  0.53777000  0.81824000  0.56292200  1
  O  O163  1  0.49680400  0.44464700  0.67176600  1
  O  O164  1  0.71101650  0.74901650  0.38183400  1
  O  O165  1  0.50319600  0.44464700  0.82823400  1
  O  O166  1  0.58235050  0.79053450  0.04726300  1
  O  O167  1  0.61282600  0.25070100  0.21945600  1
  O  O168  1  0.61313100  0.85128900  0.22024100  1
  O  O169  1  0.63521250  0.05741250  0.31922100  1
  O  O170  1  0.68610150  0.95786450  0.47793900  1
  O  O171  1  0.53777000  0.18176000  0.06292200  1
  O  O172  1  0.46223000  0.81824000  0.93707800  1
  O  O173  1  0.31389850  0.04213550  0.52206100  1
  O  O174  1  0.36478750  0.94258750  0.68077900  1
  O  O175  1  0.38686900  0.14871100  0.77975900  1
  O  O176  1  0.38717400  0.74929900  0.78054400  1
  O  O177  1  0.41764950  0.20946550  0.95273700  1
  O  O178  1  0.49680400  0.55535300  0.17176600  1
  O  O179  1  0.28898350  0.25098350  0.61816600  1
  O  O180  1  0.50319600  0.55535300  0.32823400  1
  O  O181  1  0.46223000  0.18176000  0.43707800  1
  O  O182  1  0.31389850  0.95786450  0.02206100  1
  O  O183  1  0.36478750  0.05741250  0.18077900  1
  O  O184  1  0.38686900  0.85128900  0.27975900  1
  O  O185  1  0.38717400  0.25070100  0.28054400  1
  O  O186  1  0.23554900  0.11422800  0.86309800  1
  O  O187  1  0.41764950  0.79053450  0.45273700  1
  O  O188  1  0.28898350  0.74901650  0.11816600  1
  O  O189  1  0.08587400  0.99216700  0.93696400  1
  O  O190  1  0.23554900  0.88577200  0.36309800  1
  O  O191  1  0.08587400  0.00783300  0.43696400  1
