# generated using pymatgen
data_Li2TiMn2O5
_symmetry_space_group_name_H-M   'P 1'
_cell_length_a   5.30964200
_cell_length_b   15.20561400
_cell_length_c   5.33009496
_cell_angle_alpha   90.00000000
_cell_angle_beta   110.41482855
_cell_angle_gamma   90.00000000
_symmetry_Int_Tables_number   1
_chemical_formula_structural   Li2TiMn2O5
_chemical_formula_sum   'Li8 Ti4 Mn8 O20'
_cell_volume   403.30406819
_cell_formula_units_Z   4
loop_
 _symmetry_equiv_pos_site_id
 _symmetry_equiv_pos_as_xyz
  1  'x, y, z'
loop_
 _atom_site_type_symbol
 _atom_site_label
 _atom_site_symmetry_multiplicity
 _atom_site_fract_x
 _atom_site_fract_y
 _atom_site_fract_z
 _atom_site_occupancy
  Li  Li0  1  0.50000000  0.40094000  0.00000000  1
  Li  Li1  1  0.00000000  0.49657500  0.00000000  1
  Li  Li2  1  0.00000000  0.39856100  0.50000000  1
  Li  Li3  1  0.00000000  0.20674400  0.50000000  1
  Li  Li4  1  0.00000000  0.90094000  0.00000000  1
  Li  Li5  1  0.50000000  0.99657500  0.00000000  1
  Li  Li6  1  0.50000000  0.89856100  0.50000000  1
  Li  Li7  1  0.50000000  0.70674400  0.50000000  1
  Ti  Ti8  1  0.00000000  0.31280500  0.00000000  1
  Ti  Ti9  1  0.00000000  0.00346100  0.50000000  1
  Ti  Ti10  1  0.50000000  0.81280500  0.00000000  1
  Ti  Ti11  1  0.50000000  0.50346100  0.50000000  1
  Mn  Mn12  1  0.00000000  0.09763600  0.00000000  1
  Mn  Mn13  1  0.50000000  0.20142900  0.00000000  1
  Mn  Mn14  1  0.50000000  0.30294100  0.50000000  1
  Mn  Mn15  1  0.50000000  0.09752300  0.50000000  1
  Mn  Mn16  1  0.50000000  0.59763600  0.00000000  1
  Mn  Mn17  1  0.00000000  0.70142900  0.00000000  1
  Mn  Mn18  1  0.00000000  0.80294100  0.50000000  1
  Mn  Mn19  1  0.00000000  0.59752300  0.50000000  1
  O  O20  1  0.75941850  0.39908750  0.75822700  1
  O  O21  1  0.24117850  0.08868050  0.73702800  1
  O  O22  1  0.22373450  0.30007950  0.77655500  1
  O  O23  1  0.77626550  0.30007950  0.22344500  1
  O  O24  1  0.75902750  0.20611750  0.76054100  1
  O  O25  1  0.27961600  0.49671400  0.72157200  1
  O  O26  1  0.24058150  0.39908750  0.24177300  1
  O  O27  1  0.72038400  0.49671400  0.27842800  1
  O  O28  1  0.24097250  0.20611750  0.23945900  1
  O  O29  1  0.75882150  0.08868050  0.26297200  1
  O  O30  1  0.25941850  0.89908750  0.75822700  1
  O  O31  1  0.74117850  0.58868050  0.73702800  1
  O  O32  1  0.72373450  0.80007950  0.77655500  1
  O  O33  1  0.27626550  0.80007950  0.22344500  1
  O  O34  1  0.25902750  0.70611750  0.76054100  1
  O  O35  1  0.77961600  0.99671400  0.72157200  1
  O  O36  1  0.74058150  0.89908750  0.24177300  1
  O  O37  1  0.22038400  0.99671400  0.27842800  1
  O  O38  1  0.74097250  0.70611750  0.23945900  1
  O  O39  1  0.25882150  0.58868050  0.26297200  1
