# generated using pymatgen
data_Sr2HfO4
_symmetry_space_group_name_H-M   'P 1'
_cell_length_a   5.73884000
_cell_length_b   5.73884000
_cell_length_c   26.28745800
_cell_angle_alpha   90.00000000
_cell_angle_beta   90.00000000
_cell_angle_gamma   90.00000000
_symmetry_Int_Tables_number   1
_chemical_formula_structural   Sr2HfO4
_chemical_formula_sum   'Sr16 Hf8 O32'
_cell_volume   865.75862175
_cell_formula_units_Z   8
loop_
 _symmetry_equiv_pos_site_id
 _symmetry_equiv_pos_as_xyz
  1  'x, y, z'
loop_
 _atom_site_type_symbol
 _atom_site_label
 _atom_site_symmetry_multiplicity
 _atom_site_fract_x
 _atom_site_fract_y
 _atom_site_fract_z
 _atom_site_occupancy
  Sr  Sr0  1  0.00000000  0.50000000  0.42462500  1
  Sr  Sr1  1  0.00000000  0.00000000  0.32537500  1
  Sr  Sr2  1  0.50000000  0.00000000  0.07537500  1
  Sr  Sr3  1  0.00000000  0.00000000  0.17462500  1
  Sr  Sr4  1  0.50000000  0.50000000  0.32537500  1
  Sr  Sr5  1  0.50000000  0.00000000  0.42462500  1
  Sr  Sr6  1  0.00000000  0.50000000  0.07537500  1
  Sr  Sr7  1  0.50000000  0.50000000  0.17462500  1
  Sr  Sr8  1  0.50000000  0.00000000  0.92462500  1
  Sr  Sr9  1  0.50000000  0.50000000  0.82537500  1
  Sr  Sr10  1  0.00000000  0.50000000  0.57537500  1
  Sr  Sr11  1  0.50000000  0.50000000  0.67462500  1
  Sr  Sr12  1  0.00000000  0.00000000  0.82537500  1
  Sr  Sr13  1  0.00000000  0.50000000  0.92462500  1
  Sr  Sr14  1  0.50000000  0.00000000  0.57537500  1
  Sr  Sr15  1  0.00000000  0.00000000  0.67462500  1
  Hf  Hf16  1  0.50000000  0.50000000  0.00000000  1
  Hf  Hf17  1  0.00000000  0.50000000  0.25000000  1
  Hf  Hf18  1  0.00000000  0.00000000  0.00000000  1
  Hf  Hf19  1  0.50000000  0.00000000  0.25000000  1
  Hf  Hf20  1  0.00000000  0.00000000  0.50000000  1
  Hf  Hf21  1  0.50000000  0.00000000  0.75000000  1
  Hf  Hf22  1  0.50000000  0.50000000  0.50000000  1
  Hf  Hf23  1  0.00000000  0.50000000  0.75000000  1
  O  O24  1  0.69932800  0.69932800  0.25000000  1
  O  O25  1  0.80067200  0.19932800  0.25000000  1
  O  O26  1  0.00000000  0.50000000  0.16946700  1
  O  O27  1  0.00000000  0.00000000  0.41946700  1
  O  O28  1  0.00000000  0.50000000  0.33053300  1
  O  O29  1  0.50000000  0.50000000  0.08053300  1
  O  O30  1  0.19932800  0.80067200  0.25000000  1
  O  O31  1  0.69932800  0.19932800  0.00000000  1
  O  O32  1  0.30067200  0.30067200  0.25000000  1
  O  O33  1  0.80067200  0.69932800  0.00000000  1
  O  O34  1  0.00000000  0.00000000  0.08053300  1
  O  O35  1  0.50000000  0.50000000  0.41946700  1
  O  O36  1  0.50000000  0.00000000  0.16946700  1
  O  O37  1  0.50000000  0.00000000  0.33053300  1
  O  O38  1  0.19932800  0.30067200  0.00000000  1
  O  O39  1  0.30067200  0.80067200  0.00000000  1
  O  O40  1  0.19932800  0.19932800  0.75000000  1
  O  O41  1  0.30067200  0.69932800  0.75000000  1
  O  O42  1  0.50000000  0.00000000  0.66946700  1
  O  O43  1  0.50000000  0.50000000  0.91946700  1
  O  O44  1  0.50000000  0.00000000  0.83053300  1
  O  O45  1  0.00000000  0.00000000  0.58053300  1
  O  O46  1  0.69932800  0.30067200  0.75000000  1
  O  O47  1  0.19932800  0.69932800  0.50000000  1
  O  O48  1  0.80067200  0.80067200  0.75000000  1
  O  O49  1  0.30067200  0.19932800  0.50000000  1
  O  O50  1  0.50000000  0.50000000  0.58053300  1
  O  O51  1  0.00000000  0.00000000  0.91946700  1
  O  O52  1  0.00000000  0.50000000  0.66946700  1
  O  O53  1  0.00000000  0.50000000  0.83053300  1
  O  O54  1  0.69932800  0.80067200  0.50000000  1
  O  O55  1  0.80067200  0.30067200  0.50000000  1
