# generated using pymatgen
data_Li4Cr3Co2Sb3O16
_symmetry_space_group_name_H-M   'P 1'
_cell_length_a   10.53912800
_cell_length_b   6.12921000
_cell_length_c   9.85675949
_cell_angle_alpha   90.00000000
_cell_angle_beta   90.39182925
_cell_angle_gamma   90.00000000
_symmetry_Int_Tables_number   1
_chemical_formula_structural   Li4Cr3Co2Sb3O16
_chemical_formula_sum   'Li8 Cr6 Co4 Sb6 O32'
_cell_volume   636.69755872
_cell_formula_units_Z   2
loop_
 _symmetry_equiv_pos_site_id
 _symmetry_equiv_pos_as_xyz
  1  'x, y, z'
loop_
 _atom_site_type_symbol
 _atom_site_label
 _atom_site_symmetry_multiplicity
 _atom_site_fract_x
 _atom_site_fract_y
 _atom_site_fract_z
 _atom_site_occupancy
  Li  Li0  1  0.32909000  0.00000000  0.90012800  1
  Li  Li1  1  0.99014800  0.00000000  0.00567200  1
  Li  Li2  1  0.98864100  0.00000000  0.49059300  1
  Li  Li3  1  0.66398200  0.00000000  0.37288900  1
  Li  Li4  1  0.82909000  0.50000000  0.90012800  1
  Li  Li5  1  0.49014800  0.50000000  0.00567200  1
  Li  Li6  1  0.48864100  0.50000000  0.49059300  1
  Li  Li7  1  0.16398200  0.50000000  0.37288900  1
  Cr  Cr8  1  0.41601500  0.75333000  0.21516700  1
  Cr  Cr9  1  0.41601500  0.24667000  0.21516700  1
  Cr  Cr10  1  0.83201600  0.00000000  0.71584000  1
  Cr  Cr11  1  0.91601500  0.25333000  0.21516700  1
  Cr  Cr12  1  0.91601500  0.74667000  0.21516700  1
  Cr  Cr13  1  0.33201600  0.50000000  0.71584000  1
  Co  Co14  1  0.34622900  0.00000000  0.47594300  1
  Co  Co15  1  0.67291600  0.00000000  0.01791600  1
  Co  Co16  1  0.84622900  0.50000000  0.47594300  1
  Co  Co17  1  0.17291600  0.50000000  0.01791600  1
  Sb  Sb18  1  0.17025400  0.00000000  0.21524400  1
  Sb  Sb19  1  0.58497200  0.75278200  0.71571000  1
  Sb  Sb20  1  0.58497200  0.24721800  0.71571000  1
  Sb  Sb21  1  0.67025400  0.50000000  0.21524400  1
  Sb  Sb22  1  0.08497200  0.25278200  0.71571000  1
  Sb  Sb23  1  0.08497200  0.74721800  0.71571000  1
  O  O24  1  0.42554700  0.73640100  0.60627600  1
  O  O25  1  0.48268500  0.00000000  0.33118400  1
  O  O26  1  0.33276000  0.00000000  0.10531000  1
  O  O27  1  0.00152400  0.00000000  0.31150300  1
  O  O28  1  0.00020000  0.00000000  0.81971500  1
  O  O29  1  0.42554700  0.26359900  0.60627600  1
  O  O30  1  0.25719450  0.77652050  0.33436600  1
  O  O31  1  0.25719450  0.22347950  0.33436600  1
  O  O32  1  0.84081400  0.00000000  0.10614500  1
  O  O33  1  0.15563300  0.00000000  0.60266800  1
  O  O34  1  0.74026800  0.77232400  0.82820100  1
  O  O35  1  0.74026800  0.22767600  0.82820100  1
  O  O36  1  0.66686200  0.00000000  0.60304600  1
  O  O37  1  0.58129150  0.73333450  0.10175400  1
  O  O38  1  0.51312100  0.00000000  0.83085400  1
  O  O39  1  0.58129150  0.26666550  0.10175400  1
  O  O40  1  0.92554700  0.23640100  0.60627600  1
  O  O41  1  0.98268500  0.50000000  0.33118400  1
  O  O42  1  0.83276000  0.50000000  0.10531000  1
  O  O43  1  0.50152400  0.50000000  0.31150300  1
  O  O44  1  0.50020000  0.50000000  0.81971500  1
  O  O45  1  0.92554700  0.76359900  0.60627600  1
  O  O46  1  0.75719450  0.27652050  0.33436600  1
  O  O47  1  0.75719450  0.72347950  0.33436600  1
  O  O48  1  0.34081400  0.50000000  0.10614500  1
  O  O49  1  0.65563300  0.50000000  0.60266800  1
  O  O50  1  0.24026800  0.27232400  0.82820100  1
  O  O51  1  0.24026800  0.72767600  0.82820100  1
  O  O52  1  0.16686200  0.50000000  0.60304600  1
  O  O53  1  0.08129150  0.23333450  0.10175400  1
  O  O54  1  0.01312100  0.50000000  0.83085400  1
  O  O55  1  0.08129150  0.76666550  0.10175400  1
