# generated using pymatgen
data_VFe5(PO4)6
_symmetry_space_group_name_H-M   'P 1'
_cell_length_a   8.62737005
_cell_length_b   8.62737005
_cell_length_c   20.51273853
_cell_angle_alpha   90.00000000
_cell_angle_beta   90.00000000
_cell_angle_gamma   120.00000000
_symmetry_Int_Tables_number   1
_chemical_formula_structural   VFe5(PO4)6
_chemical_formula_sum   'V3 Fe15 P18 O72'
_cell_volume   1322.24254985
_cell_formula_units_Z   3
loop_
 _symmetry_equiv_pos_site_id
 _symmetry_equiv_pos_as_xyz
  1  'x, y, z'
loop_
 _atom_site_type_symbol
 _atom_site_label
 _atom_site_symmetry_multiplicity
 _atom_site_fract_x
 _atom_site_fract_y
 _atom_site_fract_z
 _atom_site_occupancy
  V  V0  1  0.33333333  0.66666667  0.81011767  1
  V  V1  1  0.00000000  0.00000000  0.14345100  1
  V  V2  1  0.66666667  0.33333333  0.47678433  1
  Fe  Fe3  1  0.33333333  0.66666667  0.66624867  1
  Fe  Fe4  1  0.33333333  0.66666667  0.31212467  1
  Fe  Fe5  1  0.33333333  0.66666667  0.16584767  1
  Fe  Fe6  1  0.33333333  0.66666667  0.52309567  1
  Fe  Fe7  1  0.33333333  0.66666667  0.02107567  1
  Fe  Fe8  1  0.00000000  0.00000000  0.99958200  1
  Fe  Fe9  1  0.00000000  0.00000000  0.64545800  1
  Fe  Fe10  1  0.00000000  0.00000000  0.49918100  1
  Fe  Fe11  1  0.00000000  0.00000000  0.85642900  1
  Fe  Fe12  1  0.00000000  0.00000000  0.35440900  1
  Fe  Fe13  1  0.66666667  0.33333333  0.33291533  1
  Fe  Fe14  1  0.66666667  0.33333333  0.97879133  1
  Fe  Fe15  1  0.66666667  0.33333333  0.83251433  1
  Fe  Fe16  1  0.66666667  0.33333333  0.18976233  1
  Fe  Fe17  1  0.66666667  0.33333333  0.68774233  1
  P  P18  1  0.70512667  0.70514533  0.24948833  1
  P  P19  1  0.29485467  0.99998133  0.24948833  1
  P  P20  1  0.00001867  0.29487333  0.24948833  1
  P  P21  1  0.66836167  0.03883433  0.08460733  1
  P  P22  1  0.37047267  0.33163833  0.08460733  1
  P  P23  1  0.96116567  0.62952733  0.08460733  1
  P  P24  1  0.37179333  0.03847867  0.58282167  1
  P  P25  1  0.96152133  0.33331467  0.58282167  1
  P  P26  1  0.66668533  0.62820667  0.58282167  1
  P  P27  1  0.33502833  0.37216767  0.41794067  1
  P  P28  1  0.03713933  0.66497167  0.41794067  1
  P  P29  1  0.62783233  0.96286067  0.41794067  1
  P  P30  1  0.03846000  0.37181200  0.91615500  1
  P  P31  1  0.62818800  0.66664800  0.91615500  1
  P  P32  1  0.33335200  0.96154000  0.91615500  1
  P  P33  1  0.00169500  0.70550100  0.75127400  1
  P  P34  1  0.70380600  0.99830500  0.75127400  1
  P  P35  1  0.29449900  0.29619400  0.75127400  1
  O  O36  1  0.52433633  0.65166667  0.97801567  1
  O  O37  1  0.34833333  0.87266967  0.97801567  1
  O  O38  1  0.12733033  0.47566367  0.97801567  1
  O  O39  1  0.68257367  0.51721633  0.25792833  1
  O  O40  1  0.14936833  0.47183367  0.85532567  1
  O  O41  1  0.51622533  0.68593567  0.23659167  1
  O  O42  1  0.48278367  0.16535733  0.25792833  1
  O  O43  1  0.31406433  0.83028967  0.23659167  1
  O  O44  1  0.67738033  0.14341567  0.14483967  1
  O  O45  1  0.16971033  0.48377467  0.23659167  1
  O  O46  1  0.83506867  0.01263733  0.07753133  1
  O  O47  1  0.46603533  0.32261967  0.14483967  1
  O  O48  1  0.52816633  0.67753467  0.85532567  1
  O  O49  1  0.83464267  0.31742633  0.25792833  1
  O  O50  1  0.50054200  0.84593700  0.09460600  1
  O  O51  1  0.32246533  0.85063167  0.85532567  1
  O  O52  1  0.34539500  0.49945800  0.09460600  1
  O  O53  1  0.17756867  0.16493133  0.07753133  1
  O  O54  1  0.15406300  0.65460500  0.09460600  1
  O  O55  1  0.85658433  0.53396467  0.14483967  1
  O  O56  1  0.98736267  0.82243133  0.07753133  1
  O  O57  1  0.53440933  0.86709667  0.35489267  1
  O  O58  1  0.33268733  0.46559067  0.35489267  1
  O  O59  1  0.13290333  0.66731267  0.35489267  1
  O  O60  1  0.19100300  0.98500000  0.31134900  1
  O  O61  1  0.01500000  0.20600300  0.31134900  1
  O  O62  1  0.79399700  0.80899700  0.31134900  1
  O  O63  1  0.34924033  0.85054967  0.59126167  1
  O  O64  1  0.81603500  0.80516700  0.18865900  1
  O  O65  1  0.18289200  0.01926900  0.56992500  1
  O  O66  1  0.14945033  0.49869067  0.59126167  1
  O  O67  1  0.98073100  0.16362300  0.56992500  1
  O  O68  1  0.34404700  0.47674900  0.47817300  1
  O  O69  1  0.83637700  0.81710800  0.56992500  1
  O  O70  1  0.50173533  0.34597067  0.41086467  1
  O  O71  1  0.13270200  0.65595300  0.47817300  1
  O  O72  1  0.19483300  0.01086800  0.18865900  1
  O  O73  1  0.50130933  0.65075967  0.59126167  1
  O  O74  1  0.16720867  0.17927033  0.42793933  1
  O  O75  1  0.98913200  0.18396500  0.18865900  1
  O  O76  1  0.01206167  0.83279133  0.42793933  1
  O  O77  1  0.84423533  0.49826467  0.41086467  1
  O  O78  1  0.82072967  0.98793833  0.42793933  1
  O  O79  1  0.52325100  0.86729800  0.47817300  1
  O  O80  1  0.65402933  0.15576467  0.41086467  1
  O  O81  1  0.20107600  0.20043000  0.68822600  1
  O  O82  1  0.99935400  0.79892400  0.68822600  1
  O  O83  1  0.79957000  0.00064600  0.68822600  1
  O  O84  1  0.85766967  0.31833333  0.64468233  1
  O  O85  1  0.68166667  0.53933633  0.64468233  1
  O  O86  1  0.46066367  0.14233033  0.64468233  1
  O  O87  1  0.01590700  0.18388300  0.92459500  1
  O  O88  1  0.48270167  0.13850033  0.52199233  1
  O  O89  1  0.84955867  0.35260233  0.90325833  1
  O  O90  1  0.81611700  0.83202400  0.92459500  1
  O  O91  1  0.64739767  0.49695633  0.90325833  1
  O  O92  1  0.01071367  0.81008233  0.81150633  1
  O  O93  1  0.50304367  0.15044133  0.90325833  1
  O  O94  1  0.16840200  0.67930400  0.74419800  1
  O  O95  1  0.79936867  0.98928633  0.81150633  1
  O  O96  1  0.86149967  0.34420133  0.52199233  1
  O  O97  1  0.16797600  0.98409300  0.92459500  1
  O  O98  1  0.83387533  0.51260367  0.76127267  1
  O  O99  1  0.65579867  0.51729833  0.52199233  1
  O  O100  1  0.67872833  0.16612467  0.76127267  1
  O  O101  1  0.51090200  0.83159800  0.74419800  1
  O  O102  1  0.48739633  0.32127167  0.76127267  1
  O  O103  1  0.18991767  0.20063133  0.81150633  1
  O  O104  1  0.32069600  0.48909800  0.74419800  1
  O  O105  1  0.86774267  0.53376333  0.02155933  1
  O  O106  1  0.66602067  0.13225733  0.02155933  1
  O  O107  1  0.46623667  0.33397933  0.02155933  1
