# generated using pymatgen
data_Zn(CuO2)2
_symmetry_space_group_name_H-M   'P 1'
_cell_length_a   5.45573000
_cell_length_b   5.45573000
_cell_length_c   9.59835800
_cell_angle_alpha   90.00000000
_cell_angle_beta   90.00000000
_cell_angle_gamma   90.00000000
_symmetry_Int_Tables_number   1
_chemical_formula_structural   Zn(CuO2)2
_chemical_formula_sum   'Zn4 Cu8 O16'
_cell_volume   285.69502828
_cell_formula_units_Z   4
loop_
 _symmetry_equiv_pos_site_id
 _symmetry_equiv_pos_as_xyz
  1  'x, y, z'
loop_
 _atom_site_type_symbol
 _atom_site_label
 _atom_site_symmetry_multiplicity
 _atom_site_fract_x
 _atom_site_fract_y
 _atom_site_fract_z
 _atom_site_occupancy
  Zn  Zn0  1  0.50000000  0.00000000  0.25000000  1
  Zn  Zn1  1  0.50000000  0.50000000  0.00000000  1
  Zn  Zn2  1  0.00000000  0.50000000  0.75000000  1
  Zn  Zn3  1  0.00000000  0.00000000  0.50000000  1
  Cu  Cu4  1  0.25000000  0.50000000  0.37500000  1
  Cu  Cu5  1  0.00000000  0.75000000  0.12500000  1
  Cu  Cu6  1  0.00000000  0.25000000  0.12500000  1
  Cu  Cu7  1  0.75000000  0.50000000  0.37500000  1
  Cu  Cu8  1  0.75000000  0.00000000  0.87500000  1
  Cu  Cu9  1  0.50000000  0.25000000  0.62500000  1
  Cu  Cu10  1  0.50000000  0.75000000  0.62500000  1
  Cu  Cu11  1  0.25000000  0.00000000  0.87500000  1
  O  O12  1  0.66969200  0.20322300  0.45241800  1
  O  O13  1  0.16969200  0.20322300  0.29758200  1
  O  O14  1  0.29677700  0.66969200  0.20241800  1
  O  O15  1  0.29677700  0.16969200  0.04758200  1
  O  O16  1  0.70322300  0.33030800  0.20241800  1
  O  O17  1  0.70322300  0.83030800  0.04758200  1
  O  O18  1  0.33030800  0.79677700  0.45241800  1
  O  O19  1  0.83030800  0.79677700  0.29758200  1
  O  O20  1  0.16969200  0.70322300  0.95241800  1
  O  O21  1  0.66969200  0.70322300  0.79758200  1
  O  O22  1  0.79677700  0.16969200  0.70241800  1
  O  O23  1  0.79677700  0.66969200  0.54758200  1
  O  O24  1  0.20322300  0.83030800  0.70241800  1
  O  O25  1  0.20322300  0.33030800  0.54758200  1
  O  O26  1  0.83030800  0.29677700  0.95241800  1
  O  O27  1  0.33030800  0.29677700  0.79758200  1
