# generated using pymatgen
data_BaNa6O4
_symmetry_space_group_name_H-M   'P 1'
_cell_length_a   11.52064600
_cell_length_b   11.52064600
_cell_length_c   11.52064600
_cell_angle_alpha   90.00000000
_cell_angle_beta   90.00000000
_cell_angle_gamma   90.00000000
_symmetry_Int_Tables_number   1
_chemical_formula_structural   BaNa6O4
_chemical_formula_sum   'Ba8 Na48 O32'
_cell_volume   1529.08101518
_cell_formula_units_Z   8
loop_
 _symmetry_equiv_pos_site_id
 _symmetry_equiv_pos_as_xyz
  1  'x, y, z'
loop_
 _atom_site_type_symbol
 _atom_site_label
 _atom_site_symmetry_multiplicity
 _atom_site_fract_x
 _atom_site_fract_y
 _atom_site_fract_z
 _atom_site_occupancy
  Ba  Ba0  1  0.62561350  0.37438650  0.37438650  1
  Ba  Ba1  1  0.12561350  0.12561350  0.12561350  1
  Ba  Ba2  1  0.37438650  0.62561350  0.37438650  1
  Ba  Ba3  1  0.37438650  0.37438650  0.62561350  1
  Ba  Ba4  1  0.12561350  0.87438650  0.87438650  1
  Ba  Ba5  1  0.62561350  0.62561350  0.62561350  1
  Ba  Ba6  1  0.87438650  0.12561350  0.87438650  1
  Ba  Ba7  1  0.87438650  0.87438650  0.12561350  1
  Na  Na8  1  0.87625650  0.12374350  0.59617250  1
  Na  Na9  1  0.87625650  0.59617250  0.12374350  1
  Na  Na10  1  0.87378200  0.12621800  0.34684300  1
  Na  Na11  1  0.87378200  0.34684300  0.12621800  1
  Na  Na12  1  0.90382750  0.37625650  0.37625650  1
  Na  Na13  1  0.12621800  0.65315700  0.12621800  1
  Na  Na14  1  0.12621800  0.12621800  0.65315700  1
  Na  Na15  1  0.12621800  0.87378200  0.34684300  1
  Na  Na16  1  0.12621800  0.34684300  0.87378200  1
  Na  Na17  1  0.12374350  0.40382750  0.12374350  1
  Na  Na18  1  0.12374350  0.12374350  0.40382750  1
  Na  Na19  1  0.12374350  0.87625650  0.59617250  1
  Na  Na20  1  0.12374350  0.59617250  0.87625650  1
  Na  Na21  1  0.15315700  0.37378200  0.37378200  1
  Na  Na22  1  0.34684300  0.87378200  0.12621800  1
  Na  Na23  1  0.34684300  0.12621800  0.87378200  1
  Na  Na24  1  0.37625650  0.90382750  0.37625650  1
  Na  Na25  1  0.37625650  0.37625650  0.90382750  1
  Na  Na26  1  0.37378200  0.15315700  0.37378200  1
  Na  Na27  1  0.37378200  0.37378200  0.15315700  1
  Na  Na28  1  0.40382750  0.12374350  0.12374350  1
  Na  Na29  1  0.59617250  0.87625650  0.12374350  1
  Na  Na30  1  0.59617250  0.12374350  0.87625650  1
  Na  Na31  1  0.65315700  0.12621800  0.12621800  1
  Na  Na32  1  0.37625650  0.62374350  0.09617250  1
  Na  Na33  1  0.37625650  0.09617250  0.62374350  1
  Na  Na34  1  0.37378200  0.62621800  0.84684300  1
  Na  Na35  1  0.37378200  0.84684300  0.62621800  1
  Na  Na36  1  0.40382750  0.87625650  0.87625650  1
  Na  Na37  1  0.62621800  0.15315700  0.62621800  1
  Na  Na38  1  0.62621800  0.62621800  0.15315700  1
  Na  Na39  1  0.62621800  0.37378200  0.84684300  1
  Na  Na40  1  0.62621800  0.84684300  0.37378200  1
  Na  Na41  1  0.62374350  0.90382750  0.62374350  1
  Na  Na42  1  0.62374350  0.62374350  0.90382750  1
  Na  Na43  1  0.62374350  0.37625650  0.09617250  1
  Na  Na44  1  0.62374350  0.09617250  0.37625650  1
  Na  Na45  1  0.65315700  0.87378200  0.87378200  1
  Na  Na46  1  0.84684300  0.37378200  0.62621800  1
  Na  Na47  1  0.84684300  0.62621800  0.37378200  1
  Na  Na48  1  0.87625650  0.40382750  0.87625650  1
  Na  Na49  1  0.87625650  0.87625650  0.40382750  1
  Na  Na50  1  0.87378200  0.65315700  0.87378200  1
  Na  Na51  1  0.87378200  0.87378200  0.65315700  1
  Na  Na52  1  0.90382750  0.62374350  0.62374350  1
  Na  Na53  1  0.09617250  0.37625650  0.62374350  1
  Na  Na54  1  0.09617250  0.62374350  0.37625650  1
  Na  Na55  1  0.15315700  0.62621800  0.62621800  1
  O  O56  1  0.76079550  0.23920450  0.48429850  1
  O  O57  1  0.76079550  0.48429850  0.23920450  1
  O  O58  1  0.00000000  0.00000000  0.00000000  1
  O  O59  1  0.00000000  0.00000000  0.50000000  1
  O  O60  1  0.00000000  0.50000000  0.00000000  1
  O  O61  1  0.01570150  0.26079550  0.26079550  1
  O  O62  1  0.23920450  0.51570150  0.23920450  1
  O  O63  1  0.23920450  0.23920450  0.51570150  1
  O  O64  1  0.23920450  0.76079550  0.48429850  1
  O  O65  1  0.23920450  0.48429850  0.76079550  1
  O  O66  1  0.26079550  0.01570150  0.26079550  1
  O  O67  1  0.26079550  0.26079550  0.01570150  1
  O  O68  1  0.48429850  0.76079550  0.23920450  1
  O  O69  1  0.48429850  0.23920450  0.76079550  1
  O  O70  1  0.50000000  0.00000000  0.00000000  1
  O  O71  1  0.51570150  0.23920450  0.23920450  1
  O  O72  1  0.26079550  0.73920450  0.98429850  1
  O  O73  1  0.26079550  0.98429850  0.73920450  1
  O  O74  1  0.50000000  0.50000000  0.50000000  1
  O  O75  1  0.50000000  0.50000000  0.00000000  1
  O  O76  1  0.50000000  0.00000000  0.50000000  1
  O  O77  1  0.51570150  0.76079550  0.76079550  1
  O  O78  1  0.73920450  0.01570150  0.73920450  1
  O  O79  1  0.73920450  0.73920450  0.01570150  1
  O  O80  1  0.73920450  0.26079550  0.98429850  1
  O  O81  1  0.73920450  0.98429850  0.26079550  1
  O  O82  1  0.76079550  0.51570150  0.76079550  1
  O  O83  1  0.76079550  0.76079550  0.51570150  1
  O  O84  1  0.98429850  0.26079550  0.73920450  1
  O  O85  1  0.98429850  0.73920450  0.26079550  1
  O  O86  1  0.00000000  0.50000000  0.50000000  1
  O  O87  1  0.01570150  0.73920450  0.73920450  1
