# generated using pymatgen
data_BaBePO4F
_symmetry_space_group_name_H-M   'P 1'
_cell_length_a   6.96974800
_cell_length_b   6.98386400
_cell_length_c   9.14937088
_cell_angle_alpha   90.00000000
_cell_angle_beta   112.00335913
_cell_angle_gamma   90.00000000
_symmetry_Int_Tables_number   1
_chemical_formula_structural   BaBePO4F
_chemical_formula_sum   'Ba4 Be4 P4 O16 F4'
_cell_volume   412.91404398
_cell_formula_units_Z   4
loop_
 _symmetry_equiv_pos_site_id
 _symmetry_equiv_pos_as_xyz
  1  'x, y, z'
loop_
 _atom_site_type_symbol
 _atom_site_label
 _atom_site_symmetry_multiplicity
 _atom_site_fract_x
 _atom_site_fract_y
 _atom_site_fract_z
 _atom_site_occupancy
  Ba  Ba0  1  0.37547800  0.37498300  0.00060400  1
  Ba  Ba1  1  0.37547800  0.62501700  0.50060400  1
  Ba  Ba2  1  0.87547800  0.87498300  0.00060400  1
  Ba  Ba3  1  0.87547800  0.12501700  0.50060400  1
  Be  Be4  1  0.28418250  0.11679250  0.33646200  1
  Be  Be5  1  0.28418250  0.88320750  0.83646200  1
  Be  Be6  1  0.78418250  0.61679250  0.33646200  1
  Be  Be7  1  0.78418250  0.38320750  0.83646200  1
  P  P8  1  0.44752400  0.86471500  0.16550700  1
  P  P9  1  0.44752400  0.13528500  0.66550700  1
  P  P10  1  0.94752400  0.36471500  0.16550700  1
  P  P11  1  0.94752400  0.63528500  0.66550700  1
  O  O12  1  0.66306800  0.82292700  0.29698200  1
  O  O13  1  0.47819600  0.87587200  0.00501600  1
  O  O14  1  0.79109350  0.79192450  0.65897800  1
  O  O15  1  0.37151400  0.06460400  0.19867900  1
  O  O16  1  0.47819600  0.12412800  0.50501600  1
  O  O17  1  0.79109350  0.20807550  0.15897800  1
  O  O18  1  0.37151400  0.93539600  0.69867900  1
  O  O19  1  0.66306800  0.17707300  0.79698200  1
  O  O20  1  0.16306800  0.32292700  0.29698200  1
  O  O21  1  0.97819600  0.37587200  0.00501600  1
  O  O22  1  0.29109350  0.29192450  0.65897800  1
  O  O23  1  0.87151400  0.56460400  0.19867900  1
  O  O24  1  0.97819600  0.62412800  0.50501600  1
  O  O25  1  0.29109350  0.70807550  0.15897800  1
  O  O26  1  0.87151400  0.43539600  0.69867900  1
  O  O27  1  0.16306800  0.67707300  0.79698200  1
  F  F28  1  0.13029750  0.95665550  0.34820200  1
  F  F29  1  0.13029750  0.04334450  0.84820200  1
  F  F30  1  0.63029750  0.45665550  0.34820200  1
  F  F31  1  0.63029750  0.54334450  0.84820200  1
