# generated using pymatgen
data_V5BO9
_symmetry_space_group_name_H-M   'P 1'
_cell_length_a   6.15608400
_cell_length_b   15.99660400
_cell_length_c   8.35833700
_cell_angle_alpha   90.00000000
_cell_angle_beta   90.00000000
_cell_angle_gamma   90.00000000
_symmetry_Int_Tables_number   1
_chemical_formula_structural   V5BO9
_chemical_formula_sum   'V20 B4 O36'
_cell_volume   823.09925485
_cell_formula_units_Z   4
loop_
 _symmetry_equiv_pos_site_id
 _symmetry_equiv_pos_as_xyz
  1  'x, y, z'
loop_
 _atom_site_type_symbol
 _atom_site_label
 _atom_site_symmetry_multiplicity
 _atom_site_fract_x
 _atom_site_fract_y
 _atom_site_fract_z
 _atom_site_occupancy
  V  V0  1  0.24807900  0.88800800  0.49677700  1
  V  V1  1  0.50000000  0.80083900  0.83084600  1
  V  V2  1  0.50000000  0.75393400  0.17992700  1
  V  V3  1  0.50000000  0.94194300  0.19494000  1
  V  V4  1  0.75192100  0.88800800  0.49677700  1
  V  V5  1  0.74807900  0.61199200  0.99677700  1
  V  V6  1  0.00000000  0.55805700  0.69494000  1
  V  V7  1  0.00000000  0.69916100  0.33084600  1
  V  V8  1  0.00000000  0.74606600  0.67992700  1
  V  V9  1  0.25192100  0.61199200  0.99677700  1
  V  V10  1  0.74807900  0.38800800  0.49677700  1
  V  V11  1  0.00000000  0.30083900  0.83084600  1
  V  V12  1  0.00000000  0.25393400  0.17992700  1
  V  V13  1  0.00000000  0.44194300  0.19494000  1
  V  V14  1  0.25192100  0.38800800  0.49677700  1
  V  V15  1  0.24807900  0.11199200  0.99677700  1
  V  V16  1  0.50000000  0.05805700  0.69494000  1
  V  V17  1  0.50000000  0.19916100  0.33084600  1
  V  V18  1  0.50000000  0.24606600  0.67992700  1
  V  V19  1  0.75192100  0.11199200  0.99677700  1
  B  B20  1  0.50000000  0.51552100  0.72433100  1
  B  B21  1  0.00000000  0.98447900  0.22433100  1
  B  B22  1  0.00000000  0.01552100  0.72433100  1
  B  B23  1  0.50000000  0.48447900  0.22433100  1
  O  O24  1  0.19614300  0.95288800  0.28600000  1
  O  O25  1  0.25920150  0.81225350  0.69476900  1
  O  O26  1  0.50000000  0.69229600  0.94329400  1
  O  O27  1  0.50000000  0.54156300  0.10369900  1
  O  O28  1  0.50000000  0.83597000  0.35975000  1
  O  O29  1  0.50000000  0.95519100  0.56947900  1
  O  O30  1  0.50000000  0.85314400  0.04091100  1
  O  O31  1  0.69614300  0.54711200  0.78600000  1
  O  O32  1  0.74079850  0.81225350  0.69476900  1
  O  O33  1  0.75920150  0.68774650  0.19476900  1
  O  O34  1  0.80385700  0.95288800  0.28600000  1
  O  O35  1  0.00000000  0.54480900  0.06947900  1
  O  O36  1  0.00000000  0.64685600  0.54091100  1
  O  O37  1  0.00000000  0.80770400  0.44329400  1
  O  O38  1  0.00000000  0.95843700  0.60369900  1
  O  O39  1  0.00000000  0.66403000  0.85975000  1
  O  O40  1  0.24079850  0.68774650  0.19476900  1
  O  O41  1  0.30385700  0.54711200  0.78600000  1
  O  O42  1  0.69614300  0.45288800  0.28600000  1
  O  O43  1  0.75920150  0.31225350  0.69476900  1
  O  O44  1  0.00000000  0.19229600  0.94329400  1
  O  O45  1  0.00000000  0.04156300  0.10369900  1
  O  O46  1  0.00000000  0.33597000  0.35975000  1
  O  O47  1  0.00000000  0.45519100  0.56947900  1
  O  O48  1  0.00000000  0.35314400  0.04091100  1
  O  O49  1  0.19614300  0.04711200  0.78600000  1
  O  O50  1  0.24079850  0.31225350  0.69476900  1
  O  O51  1  0.25920150  0.18774650  0.19476900  1
  O  O52  1  0.30385700  0.45288800  0.28600000  1
  O  O53  1  0.50000000  0.04480900  0.06947900  1
  O  O54  1  0.50000000  0.14685600  0.54091100  1
  O  O55  1  0.50000000  0.30770400  0.44329400  1
  O  O56  1  0.50000000  0.45843700  0.60369900  1
  O  O57  1  0.50000000  0.16403000  0.85975000  1
  O  O58  1  0.74079850  0.18774650  0.19476900  1
  O  O59  1  0.80385700  0.04711200  0.78600000  1
