# generated using pymatgen
data_Rb2Ge2O5
_symmetry_space_group_name_H-M   'P 1'
_cell_length_a   10.98286400
_cell_length_b   8.81969000
_cell_length_c   15.26020180
_cell_angle_alpha   90.00000000
_cell_angle_beta   90.30257995
_cell_angle_gamma   90.00000000
_symmetry_Int_Tables_number   1
_chemical_formula_structural   Rb2Ge2O5
_chemical_formula_sum   'Rb16 Ge16 O40'
_cell_volume   1478.16578987
_cell_formula_units_Z   8
loop_
 _symmetry_equiv_pos_site_id
 _symmetry_equiv_pos_as_xyz
  1  'x, y, z'
loop_
 _atom_site_type_symbol
 _atom_site_label
 _atom_site_symmetry_multiplicity
 _atom_site_fract_x
 _atom_site_fract_y
 _atom_site_fract_z
 _atom_site_occupancy
  Rb  Rb0  1  0.82577950  0.89510450  0.41743400  1
  Rb  Rb1  1  0.82577950  0.10489550  0.91743400  1
  Rb  Rb2  1  0.57375500  0.86941200  0.10361900  1
  Rb  Rb3  1  0.57375500  0.13058800  0.60361900  1
  Rb  Rb4  1  0.42624500  0.86941200  0.39638100  1
  Rb  Rb5  1  0.42624500  0.13058800  0.89638100  1
  Rb  Rb6  1  0.17422050  0.89510450  0.08256600  1
  Rb  Rb7  1  0.17422050  0.10489550  0.58256600  1
  Rb  Rb8  1  0.32577950  0.39510450  0.41743400  1
  Rb  Rb9  1  0.32577950  0.60489550  0.91743400  1
  Rb  Rb10  1  0.07375500  0.36941200  0.10361900  1
  Rb  Rb11  1  0.07375500  0.63058800  0.60361900  1
  Rb  Rb12  1  0.92624500  0.36941200  0.39638100  1
  Rb  Rb13  1  0.92624500  0.63058800  0.89638100  1
  Rb  Rb14  1  0.67422050  0.39510450  0.08256600  1
  Rb  Rb15  1  0.67422050  0.60489550  0.58256600  1
  Ge  Ge16  1  0.86831900  0.07903100  0.19492800  1
  Ge  Ge17  1  0.86831900  0.92096900  0.69492800  1
  Ge  Ge18  1  0.61648750  0.17849450  0.32112500  1
  Ge  Ge19  1  0.61648750  0.82150550  0.82112500  1
  Ge  Ge20  1  0.38351250  0.17849450  0.17887500  1
  Ge  Ge21  1  0.38351250  0.82150550  0.67887500  1
  Ge  Ge22  1  0.13168100  0.07903100  0.30507200  1
  Ge  Ge23  1  0.13168100  0.92096900  0.80507200  1
  Ge  Ge24  1  0.36831900  0.57903100  0.19492800  1
  Ge  Ge25  1  0.36831900  0.42096900  0.69492800  1
  Ge  Ge26  1  0.11648750  0.67849450  0.32112500  1
  Ge  Ge27  1  0.11648750  0.32150550  0.82112500  1
  Ge  Ge28  1  0.88351250  0.67849450  0.17887500  1
  Ge  Ge29  1  0.88351250  0.32150550  0.67887500  1
  Ge  Ge30  1  0.63168100  0.57903100  0.30507200  1
  Ge  Ge31  1  0.63168100  0.42096900  0.80507200  1
  O  O32  1  0.38747750  0.37877450  0.19032300  1
  O  O33  1  0.38747750  0.62122550  0.69032300  1
  O  O34  1  0.75865850  0.10949150  0.27968200  1
  O  O35  1  0.75865850  0.89050850  0.77968200  1
  O  O36  1  0.65264850  0.66293750  0.40460300  1
  O  O37  1  0.65264850  0.33706250  0.90460300  1
  O  O38  1  0.60211250  0.11059150  0.42519800  1
  O  O39  1  0.60211250  0.88940850  0.92519800  1
  O  O40  1  0.50000000  0.10150000  0.25000000  1
  O  O41  1  0.50000000  0.65588200  0.25000000  1
  O  O42  1  0.50000000  0.34411800  0.75000000  1
  O  O43  1  0.50000000  0.89850000  0.75000000  1
  O  O44  1  0.39788750  0.11059150  0.07480200  1
  O  O45  1  0.39788750  0.88940850  0.57480200  1
  O  O46  1  0.34735150  0.66293750  0.09539700  1
  O  O47  1  0.34735150  0.33706250  0.59539700  1
  O  O48  1  0.24134150  0.10949150  0.22031800  1
  O  O49  1  0.24134150  0.89050850  0.72031800  1
  O  O50  1  0.61252250  0.37877450  0.30967700  1
  O  O51  1  0.61252250  0.62122550  0.80967700  1
  O  O52  1  0.88747750  0.87877450  0.19032300  1
  O  O53  1  0.88747750  0.12122550  0.69032300  1
  O  O54  1  0.25865850  0.60949150  0.27968200  1
  O  O55  1  0.25865850  0.39050850  0.77968200  1
  O  O56  1  0.15264850  0.16293750  0.40460300  1
  O  O57  1  0.15264850  0.83706250  0.90460300  1
  O  O58  1  0.10211250  0.61059150  0.42519800  1
  O  O59  1  0.10211250  0.38940850  0.92519800  1
  O  O60  1  0.00000000  0.60150000  0.25000000  1
  O  O61  1  0.00000000  0.15588200  0.25000000  1
  O  O62  1  0.00000000  0.84411800  0.75000000  1
  O  O63  1  0.00000000  0.39850000  0.75000000  1
  O  O64  1  0.89788750  0.61059150  0.07480200  1
  O  O65  1  0.89788750  0.38940850  0.57480200  1
  O  O66  1  0.84735150  0.16293750  0.09539700  1
  O  O67  1  0.84735150  0.83706250  0.59539700  1
  O  O68  1  0.74134150  0.60949150  0.22031800  1
  O  O69  1  0.74134150  0.39050850  0.72031800  1
  O  O70  1  0.11252250  0.87877450  0.30967700  1
  O  O71  1  0.11252250  0.12122550  0.80967700  1
