# generated using pymatgen
data_Ti(Sn2O5)2
_symmetry_space_group_name_H-M   'P 1'
_cell_length_a   4.79742200
_cell_length_b   5.76088191
_cell_length_c   13.55407568
_cell_angle_alpha   78.66206542
_cell_angle_beta   89.95622312
_cell_angle_gamma   89.93328449
_symmetry_Int_Tables_number   1
_chemical_formula_structural   Ti(Sn2O5)2
_chemical_formula_sum   'Ti2 Sn8 O20'
_cell_volume   367.28844720
_cell_formula_units_Z   2
loop_
 _symmetry_equiv_pos_site_id
 _symmetry_equiv_pos_as_xyz
  1  'x, y, z'
loop_
 _atom_site_type_symbol
 _atom_site_label
 _atom_site_symmetry_multiplicity
 _atom_site_fract_x
 _atom_site_fract_y
 _atom_site_fract_z
 _atom_site_occupancy
  Ti  Ti0  1  0.99952300  0.10127000  0.19846000  1
  Ti  Ti1  1  0.00047700  0.89873000  0.80154000  1
  Sn  Sn2  1  0.49976000  0.60080600  0.19946100  1
  Sn  Sn3  1  0.50024000  0.39919400  0.80053900  1
  Sn  Sn4  1  0.50000000  0.00000000  0.00000000  1
  Sn  Sn5  1  0.50169400  0.19924200  0.39732800  1
  Sn  Sn6  1  0.49830600  0.80075800  0.60267200  1
  Sn  Sn7  1  0.00036300  0.29654700  0.60160700  1
  Sn  Sn8  1  0.00000000  0.50000000  0.00000000  1
  Sn  Sn9  1  0.99963700  0.70345300  0.39839300  1
  O  O10  1  0.81049000  0.17664600  0.06639400  1
  O  O11  1  0.81005600  0.97509600  0.66827700  1
  O  O12  1  0.81008500  0.59607000  0.85781200  1
  O  O13  1  0.80973400  0.79865100  0.25617900  1
  O  O14  1  0.80700700  0.38295500  0.46060800  1
  O  O15  1  0.70546100  0.08302500  0.86164900  1
  O  O16  1  0.70607400  0.28374400  0.25876200  1
  O  O17  1  0.68991200  0.47870300  0.66108800  1
  O  O18  1  0.69383700  0.88327600  0.46156000  1
  O  O19  1  0.68965000  0.67872600  0.05932100  1
  O  O20  1  0.29453900  0.91697500  0.13835100  1
  O  O21  1  0.30616300  0.11672400  0.53844000  1
  O  O22  1  0.31035000  0.32127400  0.94067900  1
  O  O23  1  0.29392600  0.71625600  0.74123800  1
  O  O24  1  0.31008800  0.52129700  0.33891200  1
  O  O25  1  0.18951000  0.82335400  0.93360600  1
  O  O26  1  0.19026600  0.20134900  0.74382100  1
  O  O27  1  0.18994400  0.02490400  0.33172300  1
  O  O28  1  0.18991500  0.40393000  0.14218800  1
  O  O29  1  0.19299300  0.61704500  0.53939200  1
