# generated using pymatgen
data_Sr3LaI9
_symmetry_space_group_name_H-M   'P 1'
_cell_length_a   8.40496000
_cell_length_b   7.80233000
_cell_length_c   33.10699667
_cell_angle_alpha   90.00000000
_cell_angle_beta   91.79228992
_cell_angle_gamma   90.00000000
_symmetry_Int_Tables_number   1
_chemical_formula_structural   Sr3LaI9
_chemical_formula_sum   'Sr12 La4 I36'
_cell_volume   2170.03746843
_cell_formula_units_Z   4
loop_
 _symmetry_equiv_pos_site_id
 _symmetry_equiv_pos_as_xyz
  1  'x, y, z'
loop_
 _atom_site_type_symbol
 _atom_site_label
 _atom_site_symmetry_multiplicity
 _atom_site_fract_x
 _atom_site_fract_y
 _atom_site_fract_z
 _atom_site_occupancy
  Sr  Sr0  1  0.33160800  0.03295900  0.93276500  1
  Sr  Sr1  1  0.29984000  0.99845200  0.69217500  1
  Sr  Sr2  1  0.33160800  0.96704100  0.43276500  1
  Sr  Sr3  1  0.29984000  0.00154800  0.19217500  1
  Sr  Sr4  1  0.67926800  0.01538900  0.56861000  1
  Sr  Sr5  1  0.71373500  0.01814800  0.80960100  1
  Sr  Sr6  1  0.67926800  0.98461100  0.06861000  1
  Sr  Sr7  1  0.71373500  0.98185200  0.30960100  1
  Sr  Sr8  1  0.78954000  0.47744800  0.69207900  1
  Sr  Sr9  1  0.82807800  0.48322600  0.93177700  1
  Sr  Sr10  1  0.78954000  0.52255200  0.19207900  1
  Sr  Sr11  1  0.82807800  0.51677400  0.43177700  1
  La  La12  1  0.20113600  0.47870000  0.80684800  1
  La  La13  1  0.17700400  0.45340800  0.56768100  1
  La  La14  1  0.20113600  0.52130000  0.30684800  1
  La  La15  1  0.17700400  0.54659200  0.06768100  1
  I  I16  1  0.01458800  0.19858000  0.86961300  1
  I  I17  1  0.00888200  0.17724400  0.75121000  1
  I  I18  1  0.00113000  0.17975700  0.62893500  1
  I  I19  1  0.01458800  0.80142000  0.36961300  1
  I  I20  1  0.00888200  0.82275600  0.25121000  1
  I  I21  1  0.11069300  0.29010300  0.99149800  1
  I  I22  1  0.00113000  0.82024300  0.12893500  1
  I  I23  1  0.15178900  0.67514100  0.89500400  1
  I  I24  1  0.11069300  0.70989700  0.49149800  1
  I  I25  1  0.15696400  0.60883200  0.70589100  1
  I  I26  1  0.15178900  0.32485900  0.39500400  1
  I  I27  1  0.15696400  0.39116800  0.20589100  1
  I  I28  1  0.35700300  0.84727200  0.79593600  1
  I  I29  1  0.35192800  0.80007400  0.59935700  1
  I  I30  1  0.35700300  0.15272800  0.29593600  1
  I  I31  1  0.35192800  0.19992600  0.09935700  1
  I  I32  1  0.41284300  0.24643200  0.50989200  1
  I  I33  1  0.49754400  0.31796100  0.86811200  1
  I  I34  1  0.49436500  0.30582600  0.75088900  1
  I  I35  1  0.48329700  0.29894900  0.62879300  1
  I  I36  1  0.41284300  0.75356800  0.00989200  1
  I  I37  1  0.49754400  0.68203900  0.36811200  1
  I  I38  1  0.49436500  0.69417400  0.25088900  1
  I  I39  1  0.48329700  0.70105100  0.12879300  1
  I  I40  1  0.60856200  0.23774700  0.98939700  1
  I  I41  1  0.60856200  0.76225300  0.48939700  1
  I  I42  1  0.65640500  0.84037400  0.90039400  1
  I  I43  1  0.67082600  0.87683400  0.69926100  1
  I  I44  1  0.65640500  0.15962600  0.40039400  1
  I  I45  1  0.67082600  0.12316600  0.19926100  1
  I  I46  1  0.84561500  0.61599700  0.79725500  1
  I  I47  1  0.86554000  0.65100000  0.59908200  1
  I  I48  1  0.84561500  0.38400300  0.29725500  1
  I  I49  1  0.86554000  0.34900000  0.09908200  1
  I  I50  1  0.92255400  0.24245800  0.50976000  1
  I  I51  1  0.92255400  0.75754200  0.00976000  1
