# generated using pymatgen
data_NiH8(ClO2)2
_symmetry_space_group_name_H-M   'P 1'
_cell_length_a   6.09967700
_cell_length_b   9.45117200
_cell_length_c   11.50747268
_cell_angle_alpha   90.00000000
_cell_angle_beta   110.93843838
_cell_angle_gamma   90.00000000
_symmetry_Int_Tables_number   1
_chemical_formula_structural   NiH8(ClO2)2
_chemical_formula_sum   'Ni4 H32 Cl8 O16'
_cell_volume   619.58804566
_cell_formula_units_Z   4
loop_
 _symmetry_equiv_pos_site_id
 _symmetry_equiv_pos_as_xyz
  1  'x, y, z'
loop_
 _atom_site_type_symbol
 _atom_site_label
 _atom_site_symmetry_multiplicity
 _atom_site_fract_x
 _atom_site_fract_y
 _atom_site_fract_z
 _atom_site_occupancy
  Ni  Ni0  1  0.75872500  0.32821200  0.26277400  1
  Ni  Ni1  1  0.24127500  0.82821200  0.23722600  1
  Ni  Ni2  1  0.24127500  0.67178800  0.73722600  1
  Ni  Ni3  1  0.75872500  0.17178800  0.76277400  1
  H  H4  1  0.54714200  0.29377400  0.42587900  1
  H  H5  1  0.45285800  0.79377400  0.07412100  1
  H  H6  1  0.45285800  0.70622600  0.57412100  1
  H  H7  1  0.54714200  0.20622600  0.92587900  1
  H  H8  1  0.34650500  0.32063900  0.29560500  1
  H  H9  1  0.65349500  0.82063900  0.20439500  1
  H  H10  1  0.65349500  0.67936100  0.70439500  1
  H  H11  1  0.34650500  0.17936100  0.79560500  1
  H  H12  1  0.99053200  0.34941000  0.11083500  1
  H  H13  1  0.00946800  0.84941000  0.38916500  1
  H  H14  1  0.00946800  0.65059000  0.88916500  1
  H  H15  1  0.99053200  0.15059000  0.61083500  1
  H  H16  1  0.03527500  0.49175700  0.18278700  1
  H  H17  1  0.96472500  0.99175700  0.31721300  1
  H  H18  1  0.96472500  0.50824300  0.81721300  1
  H  H19  1  0.03527500  0.00824300  0.68278700  1
  H  H20  1  0.81408400  0.59260600  0.31376200  1
  H  H21  1  0.18591600  0.09260600  0.18623800  1
  H  H22  1  0.18591600  0.40739400  0.68623800  1
  H  H23  1  0.81408400  0.90739400  0.81376200  1
  H  H24  1  0.02204100  0.52109200  0.41413100  1
  H  H25  1  0.97795900  0.02109200  0.08586900  1
  H  H26  1  0.97795900  0.47890800  0.58586900  1
  H  H27  1  0.02204100  0.97890800  0.91413100  1
  H  H28  1  0.38610800  0.42197200  0.06667600  1
  H  H29  1  0.61389200  0.92197200  0.43332400  1
  H  H30  1  0.61389200  0.57802800  0.93332400  1
  H  H31  1  0.38610800  0.07802800  0.56667600  1
  H  H32  1  0.48458700  0.56030800  0.14838000  1
  H  H33  1  0.51541300  0.06030800  0.35162000  1
  H  H34  1  0.51541300  0.43969200  0.85162000  1
  H  H35  1  0.48458700  0.93969200  0.64838000  1
  Cl  Cl36  1  0.66275700  0.14522400  0.11256500  1
  Cl  Cl37  1  0.33724300  0.64522400  0.38743500  1
  Cl  Cl38  1  0.33724300  0.85477600  0.88743500  1
  Cl  Cl39  1  0.66275700  0.35477600  0.61256500  1
  Cl  Cl40  1  0.02867300  0.18607200  0.42615200  1
  Cl  Cl41  1  0.97132700  0.68607200  0.07384800  1
  Cl  Cl42  1  0.97132700  0.81392800  0.57384800  1
  Cl  Cl43  1  0.02867300  0.31392800  0.92615200  1
  O  O44  1  0.49614800  0.26905200  0.33538700  1
  O  O45  1  0.50385200  0.76905200  0.16461300  1
  O  O46  1  0.50385200  0.73094800  0.66461300  1
  O  O47  1  0.49614800  0.23094800  0.83538700  1
  O  O48  1  0.03290300  0.38794000  0.19626400  1
  O  O49  1  0.96709700  0.88794000  0.30373600  1
  O  O50  1  0.96709700  0.61206000  0.80373600  1
  O  O51  1  0.03290300  0.11206000  0.69626400  1
  O  O52  1  0.85040500  0.51197700  0.36980100  1
  O  O53  1  0.14959500  0.01197700  0.13019900  1
  O  O54  1  0.14959500  0.48802300  0.63019900  1
  O  O55  1  0.85040500  0.98802300  0.86980100  1
  O  O56  1  0.52073500  0.46168400  0.13359200  1
  O  O57  1  0.47926500  0.96168400  0.36640800  1
  O  O58  1  0.47926500  0.53831600  0.86640800  1
  O  O59  1  0.52073500  0.03831600  0.63359200  1
