# generated using pymatgen
data_Li3Mn2Fe(BO3)3
_symmetry_space_group_name_H-M   'P 1'
_cell_length_a   8.25338400
_cell_length_b   6.34106400
_cell_length_c   8.26642585
_cell_angle_alpha   90.00000000
_cell_angle_beta   119.87310775
_cell_angle_gamma   90.00000000
_symmetry_Int_Tables_number   1
_chemical_formula_structural   Li3Mn2Fe(BO3)3
_chemical_formula_sum   'Li6 Mn4 Fe2 B6 O18'
_cell_volume   375.14268860
_cell_formula_units_Z   2
loop_
 _symmetry_equiv_pos_site_id
 _symmetry_equiv_pos_as_xyz
  1  'x, y, z'
loop_
 _atom_site_type_symbol
 _atom_site_label
 _atom_site_symmetry_multiplicity
 _atom_site_fract_x
 _atom_site_fract_y
 _atom_site_fract_z
 _atom_site_occupancy
  Li  Li0  1  0.28382100  0.24944700  0.30179900  1
  Li  Li1  1  0.28382100  0.75055300  0.30179900  1
  Li  Li2  1  0.01675000  0.24998600  0.71557200  1
  Li  Li3  1  0.01675000  0.75001400  0.71557200  1
  Li  Li4  1  0.69831900  0.74966900  0.98302500  1
  Li  Li5  1  0.69831900  0.25033100  0.98302500  1
  Mn  Mn6  1  0.37252700  0.00000000  0.01217900  1
  Mn  Mn7  1  0.37270300  0.50000000  0.01227700  1
  Mn  Mn8  1  0.64048600  0.50000000  0.62806900  1
  Mn  Mn9  1  0.98769300  0.00000000  0.36012400  1
  Fe  Fe10  1  0.64059300  0.00000000  0.63297800  1
  Fe  Fe11  1  0.99302900  0.50000000  0.36015500  1
  B  B12  1  0.99963300  0.00000000  0.99695800  1
  B  B13  1  0.99774900  0.50000000  0.00060000  1
  B  B14  1  0.33338200  0.24987900  0.66577400  1
  B  B15  1  0.33338200  0.75012100  0.66577400  1
  B  B16  1  0.66790400  0.24999900  0.33478800  1
  B  B17  1  0.66790400  0.75000100  0.33478800  1
  O  O18  1  0.11120400  0.50000000  0.19511300  1
  O  O19  1  0.11181400  0.00000000  0.19033600  1
  O  O20  1  0.13955100  0.25387000  0.55795300  1
  O  O21  1  0.13955100  0.74613000  0.55795300  1
  O  O22  1  0.07960800  0.00000000  0.88325800  1
  O  O23  1  0.07919200  0.50000000  0.88818200  1
  O  O24  1  0.44148600  0.24564900  0.58007600  1
  O  O25  1  0.44148600  0.75435100  0.58007600  1
  O  O26  1  0.41886300  0.25028000  0.85906100  1
  O  O27  1  0.41886300  0.74972000  0.85906100  1
  O  O28  1  0.47377000  0.24962700  0.22233200  1
  O  O29  1  0.47377000  0.75037300  0.22233200  1
  O  O30  1  0.80483300  0.00000000  0.91584900  1
  O  O31  1  0.80428800  0.50000000  0.92104400  1
  O  O32  1  0.78031500  0.25246800  0.25310500  1
  O  O33  1  0.78031500  0.74753200  0.25310500  1
  O  O34  1  0.74816400  0.75208100  0.52795800  1
  O  O35  1  0.74816400  0.24791900  0.52795800  1
