# generated using pymatgen
data_Al2HgTe4
_symmetry_space_group_name_H-M   'P 1'
_cell_length_a   6.28536400
_cell_length_b   6.28536400
_cell_length_c   11.97182400
_cell_angle_alpha   90.00000000
_cell_angle_beta   90.00000000
_cell_angle_gamma   90.00000000
_symmetry_Int_Tables_number   1
_chemical_formula_structural   Al2HgTe4
_chemical_formula_sum   'Al4 Hg2 Te8'
_cell_volume   472.95649191
_cell_formula_units_Z   2
loop_
 _symmetry_equiv_pos_site_id
 _symmetry_equiv_pos_as_xyz
  1  'x, y, z'
loop_
 _atom_site_type_symbol
 _atom_site_label
 _atom_site_symmetry_multiplicity
 _atom_site_fract_x
 _atom_site_fract_y
 _atom_site_fract_z
 _atom_site_occupancy
  Al  Al0  1  0.50000000  0.00000000  0.25000000  1
  Al  Al1  1  0.50000000  0.50000000  0.00000000  1
  Al  Al2  1  0.00000000  0.50000000  0.75000000  1
  Al  Al3  1  0.00000000  0.00000000  0.50000000  1
  Hg  Hg4  1  0.00000000  0.00000000  0.00000000  1
  Hg  Hg5  1  0.50000000  0.50000000  0.50000000  1
  Te  Te6  1  0.25717650  0.72552750  0.13824750  1
  Te  Te7  1  0.74282350  0.27447250  0.13824750  1
  Te  Te8  1  0.77447250  0.75717650  0.36175250  1
  Te  Te9  1  0.22552750  0.24282350  0.36175250  1
  Te  Te10  1  0.75717650  0.22552750  0.63824750  1
  Te  Te11  1  0.24282350  0.77447250  0.63824750  1
  Te  Te12  1  0.27447250  0.25717650  0.86175250  1
  Te  Te13  1  0.72552750  0.74282350  0.86175250  1
