# generated using pymatgen
data_P3(WO6)2
_symmetry_space_group_name_H-M   'P 1'
_cell_length_a   8.78609000
_cell_length_b   8.88722700
_cell_length_c   15.06869322
_cell_angle_alpha   90.00000000
_cell_angle_beta   125.27134692
_cell_angle_gamma   90.00000000
_symmetry_Int_Tables_number   1
_chemical_formula_structural   P3(WO6)2
_chemical_formula_sum   'P12 W8 O48'
_cell_volume   960.62655641
_cell_formula_units_Z   4
loop_
 _symmetry_equiv_pos_site_id
 _symmetry_equiv_pos_as_xyz
  1  'x, y, z'
loop_
 _atom_site_type_symbol
 _atom_site_label
 _atom_site_symmetry_multiplicity
 _atom_site_fract_x
 _atom_site_fract_y
 _atom_site_fract_z
 _atom_site_occupancy
  P  P0  1  0.53548800  0.75289500  0.00457100  1
  P  P1  1  0.25297000  0.61298300  0.64649500  1
  P  P2  1  0.96433100  0.88831900  0.35548500  1
  P  P3  1  0.74703000  0.11298300  0.85350500  1
  P  P4  1  0.03566900  0.38831900  0.14451500  1
  P  P5  1  0.46451200  0.25289500  0.49542900  1
  P  P6  1  0.53548800  0.74710500  0.50457100  1
  P  P7  1  0.96433100  0.61168100  0.85548500  1
  P  P8  1  0.25297000  0.88701700  0.14649500  1
  P  P9  1  0.03566900  0.11168100  0.64451500  1
  P  P10  1  0.74703000  0.38701700  0.35350500  1
  P  P11  1  0.46451200  0.24710500  0.99542900  1
  W  W12  1  0.36736000  0.96739800  0.61643200  1
  W  W13  1  0.63264000  0.46739800  0.88356800  1
  W  W14  1  0.86671800  0.03395000  0.11610800  1
  W  W15  1  0.13328200  0.53395000  0.38389200  1
  W  W16  1  0.86671800  0.46605000  0.61610800  1
  W  W17  1  0.13328200  0.96605000  0.88389200  1
  W  W18  1  0.36736000  0.53260200  0.11643200  1
  W  W19  1  0.63264000  0.03260200  0.38356800  1
  O  O20  1  0.63237000  0.13911200  0.06753200  1
  O  O21  1  0.19530400  0.10896400  0.63054500  1
  O  O22  1  0.47864300  0.32079800  0.90811500  1
  O  O23  1  0.90628800  0.42358300  0.33974200  1
  O  O24  1  0.53894000  0.64557300  0.92842500  1
  O  O25  1  0.28797400  0.78059900  0.66499200  1
  O  O26  1  0.18548500  0.56363100  0.53081200  1
  O  O27  1  0.92084800  0.99621500  0.26289200  1
  O  O28  1  0.71563500  0.84913900  0.06555600  1
  O  O29  1  0.98424100  0.72341400  0.32750900  1
  O  O30  1  0.42318500  0.51527200  0.72670600  1
  O  O31  1  0.15094700  0.93698700  0.45784600  1
  O  O32  1  0.57681500  0.01527200  0.77329400  1
  O  O33  1  0.84905300  0.43698700  0.04215400  1
  O  O34  1  0.01575900  0.22341400  0.17249100  1
  O  O35  1  0.28436500  0.34913900  0.43444400  1
  O  O36  1  0.81451500  0.06363100  0.96918800  1
  O  O37  1  0.07915200  0.49621500  0.23710800  1
  O  O38  1  0.71202600  0.28059900  0.83500800  1
  O  O39  1  0.46106000  0.14557300  0.57157500  1
  O  O40  1  0.52135700  0.82079800  0.59188500  1
  O  O41  1  0.80469600  0.60896400  0.86945500  1
  O  O42  1  0.09371200  0.92358300  0.16025800  1
  O  O43  1  0.36763000  0.63911200  0.43246800  1
  O  O44  1  0.63237000  0.36088800  0.56753200  1
  O  O45  1  0.90628800  0.07641700  0.83974200  1
  O  O46  1  0.19530400  0.39103600  0.13054500  1
  O  O47  1  0.47864300  0.17920200  0.40811500  1
  O  O48  1  0.53894000  0.85442700  0.42842500  1
  O  O49  1  0.28797400  0.71940100  0.16499200  1
  O  O50  1  0.92084800  0.50378500  0.76289200  1
  O  O51  1  0.18548500  0.93636900  0.03081200  1
  O  O52  1  0.71563500  0.65086100  0.56555600  1
  O  O53  1  0.98424100  0.77658600  0.82750900  1
  O  O54  1  0.15094700  0.56301300  0.95784600  1
  O  O55  1  0.42318500  0.98472800  0.22670600  1
  O  O56  1  0.84905300  0.06301300  0.54215400  1
  O  O57  1  0.57681500  0.48472800  0.27329400  1
  O  O58  1  0.01575900  0.27658600  0.67249100  1
  O  O59  1  0.28436500  0.15086100  0.93444400  1
  O  O60  1  0.07915200  0.00378500  0.73710800  1
  O  O61  1  0.81451500  0.43636900  0.46918800  1
  O  O62  1  0.71202600  0.21940100  0.33500800  1
  O  O63  1  0.46106000  0.35442700  0.07157500  1
  O  O64  1  0.09371200  0.57641700  0.66025800  1
  O  O65  1  0.52135700  0.67920200  0.09188500  1
  O  O66  1  0.80469600  0.89103600  0.36945500  1
  O  O67  1  0.36763000  0.86088800  0.93246800  1
