# generated using pymatgen
data_Li4V2Cr3Fe3O16
_symmetry_space_group_name_H-M   'P 1'
_cell_length_a   10.29891800
_cell_length_b   5.94240600
_cell_length_c   9.44971547
_cell_angle_alpha   90.00000000
_cell_angle_beta   90.74716245
_cell_angle_gamma   90.00000000
_symmetry_Int_Tables_number   1
_chemical_formula_structural   Li4V2Cr3Fe3O16
_chemical_formula_sum   'Li8 V4 Cr6 Fe6 O32'
_cell_volume   578.27674152
_cell_formula_units_Z   2
loop_
 _symmetry_equiv_pos_site_id
 _symmetry_equiv_pos_as_xyz
  1  'x, y, z'
loop_
 _atom_site_type_symbol
 _atom_site_label
 _atom_site_symmetry_multiplicity
 _atom_site_fract_x
 _atom_site_fract_y
 _atom_site_fract_z
 _atom_site_occupancy
  Li  Li0  1  0.66786200  0.00000000  0.90022400  1
  Li  Li1  1  0.99917300  0.00000000  0.99129800  1
  Li  Li2  1  0.99955800  0.00000000  0.49267600  1
  Li  Li3  1  0.83375000  0.50000000  0.39747200  1
  Li  Li4  1  0.16786200  0.50000000  0.90022400  1
  Li  Li5  1  0.49917300  0.50000000  0.99129800  1
  Li  Li6  1  0.49955800  0.50000000  0.49267600  1
  Li  Li7  1  0.33375000  0.00000000  0.39747200  1
  V  V8  1  0.66623200  0.00000000  0.49431600  1
  V  V9  1  0.83096700  0.50000000  0.99641500  1
  V  V10  1  0.16623200  0.50000000  0.49431600  1
  V  V11  1  0.33096700  0.00000000  0.99641500  1
  Cr  Cr12  1  0.58631350  0.24217350  0.21421200  1
  Cr  Cr13  1  0.58631350  0.75782650  0.21421200  1
  Cr  Cr14  1  0.67272800  0.50000000  0.71315000  1
  Cr  Cr15  1  0.08631350  0.74217350  0.21421200  1
  Cr  Cr16  1  0.08631350  0.25782650  0.21421200  1
  Cr  Cr17  1  0.17272800  0.00000000  0.71315000  1
  Fe  Fe18  1  0.82725800  0.00000000  0.22045600  1
  Fe  Fe19  1  0.91515150  0.73853550  0.71886000  1
  Fe  Fe20  1  0.91515150  0.26146450  0.71886000  1
  Fe  Fe21  1  0.32725800  0.50000000  0.22045600  1
  Fe  Fe22  1  0.41515150  0.23853550  0.71886000  1
  Fe  Fe23  1  0.41515150  0.76146450  0.71886000  1
  O  O24  1  0.58826800  0.23859500  0.59015600  1
  O  O25  1  0.52315000  0.00000000  0.34236800  1
  O  O26  1  0.66930400  0.00000000  0.10564400  1
  O  O27  1  0.99928600  0.00000000  0.30383600  1
  O  O28  1  0.99957000  0.00000000  0.80148300  1
  O  O29  1  0.58826800  0.76140500  0.59015600  1
  O  O30  1  0.73709550  0.21984350  0.34743700  1
  O  O31  1  0.73709550  0.78015650  0.34743700  1
  O  O32  1  0.67332600  0.50000000  0.09300700  1
  O  O33  1  0.82372700  0.00000000  0.58627300  1
  O  O34  1  0.75970250  0.71425650  0.84684600  1
  O  O35  1  0.75970250  0.28574350  0.84684600  1
  O  O36  1  0.83539700  0.50000000  0.60438200  1
  O  O37  1  0.91292250  0.73574750  0.08928400  1
  O  O38  1  0.98007300  0.50000000  0.85127000  1
  O  O39  1  0.91292250  0.26425250  0.08928400  1
  O  O40  1  0.08826800  0.73859500  0.59015600  1
  O  O41  1  0.02315000  0.50000000  0.34236800  1
  O  O42  1  0.16930400  0.50000000  0.10564400  1
  O  O43  1  0.49928600  0.50000000  0.30383600  1
  O  O44  1  0.49957000  0.50000000  0.80148300  1
  O  O45  1  0.08826800  0.26140500  0.59015600  1
  O  O46  1  0.23709550  0.71984350  0.34743700  1
  O  O47  1  0.23709550  0.28015650  0.34743700  1
  O  O48  1  0.17332600  0.00000000  0.09300700  1
  O  O49  1  0.32372700  0.50000000  0.58627300  1
  O  O50  1  0.25970250  0.21425650  0.84684600  1
  O  O51  1  0.25970250  0.78574350  0.84684600  1
  O  O52  1  0.33539700  0.00000000  0.60438200  1
  O  O53  1  0.41292250  0.23574750  0.08928400  1
  O  O54  1  0.48007300  0.00000000  0.85127000  1
  O  O55  1  0.41292250  0.76425250  0.08928400  1
