# generated using pymatgen
data_LiVOF3
_symmetry_space_group_name_H-M   'P 1'
_cell_length_a   5.38249300
_cell_length_b   5.11670400
_cell_length_c   12.35354758
_cell_angle_alpha   90.00000000
_cell_angle_beta   108.45931306
_cell_angle_gamma   90.00000000
_symmetry_Int_Tables_number   1
_chemical_formula_structural   LiVOF3
_chemical_formula_sum   'Li4 V4 O4 F12'
_cell_volume   322.71942838
_cell_formula_units_Z   4
loop_
 _symmetry_equiv_pos_site_id
 _symmetry_equiv_pos_as_xyz
  1  'x, y, z'
loop_
 _atom_site_type_symbol
 _atom_site_label
 _atom_site_symmetry_multiplicity
 _atom_site_fract_x
 _atom_site_fract_y
 _atom_site_fract_z
 _atom_site_occupancy
  Li  Li0  1  0.00357400  0.83429100  0.25306000  1
  Li  Li1  1  0.00357400  0.16570900  0.75306000  1
  Li  Li2  1  0.49559100  0.67719700  0.25402900  1
  Li  Li3  1  0.49559100  0.32280300  0.75402900  1
  V  V4  1  0.02224700  0.47555300  0.49408500  1
  V  V5  1  0.02224700  0.52444700  0.99408500  1
  V  V6  1  0.51411700  0.00194300  0.51297500  1
  V  V7  1  0.51411700  0.99805700  0.01297500  1
  O  O8  1  0.26135600  0.29920000  0.46592400  1
  O  O9  1  0.26135600  0.70080000  0.96592400  1
  O  O10  1  0.64222000  0.90082100  0.14835600  1
  O  O11  1  0.64222000  0.09917900  0.64835600  1
  F  F12  1  0.13578900  0.61536500  0.15559100  1
  F  F13  1  0.22286700  0.19951500  0.04104900  1
  F  F14  1  0.13578900  0.38463500  0.65559100  1
  F  F15  1  0.22286700  0.80048500  0.54104900  1
  F  F16  1  0.35425700  0.88311500  0.35014200  1
  F  F17  1  0.35425700  0.11688500  0.85014200  1
  F  F18  1  0.72714400  0.32551800  0.03091000  1
  F  F19  1  0.72714400  0.67448200  0.53091000  1
  F  F20  1  0.76604500  0.18446400  0.45153200  1
  F  F21  1  0.85479400  0.61340000  0.34234800  1
  F  F22  1  0.76604500  0.81553600  0.95153200  1
  F  F23  1  0.85479400  0.38660000  0.84234800  1
