# generated using pymatgen
data_Li4V5SnO12
_symmetry_space_group_name_H-M   'P 1'
_cell_length_a   5.27848000
_cell_length_b   9.04753400
_cell_length_c   10.28645159
_cell_angle_alpha   90.00000000
_cell_angle_beta   90.48174032
_cell_angle_gamma   90.00000000
_symmetry_Int_Tables_number   1
_chemical_formula_structural   Li4V5SnO12
_chemical_formula_sum   'Li8 V10 Sn2 O24'
_cell_volume   491.23504232
_cell_formula_units_Z   2
loop_
 _symmetry_equiv_pos_site_id
 _symmetry_equiv_pos_as_xyz
  1  'x, y, z'
loop_
 _atom_site_type_symbol
 _atom_site_label
 _atom_site_symmetry_multiplicity
 _atom_site_fract_x
 _atom_site_fract_y
 _atom_site_fract_z
 _atom_site_occupancy
  Li  Li0  1  0.39519400  0.24080000  0.74699100  1
  Li  Li1  1  0.60480600  0.24080000  0.25300900  1
  Li  Li2  1  0.39519400  0.75920000  0.74699100  1
  Li  Li3  1  0.60480600  0.75920000  0.25300900  1
  Li  Li4  1  0.89519400  0.74080000  0.74699100  1
  Li  Li5  1  0.10480600  0.74080000  0.25300900  1
  Li  Li6  1  0.89519400  0.25920000  0.74699100  1
  Li  Li7  1  0.10480600  0.25920000  0.25300900  1
  V  V8  1  0.50000000  0.34259700  0.50000000  1
  V  V9  1  0.50000000  0.16355700  0.00000000  1
  V  V10  1  0.50000000  0.83644300  0.00000000  1
  V  V11  1  0.50000000  0.65740300  0.50000000  1
  V  V12  1  0.50000000  0.00000000  0.50000000  1
  V  V13  1  0.00000000  0.84259700  0.50000000  1
  V  V14  1  0.00000000  0.66355700  0.00000000  1
  V  V15  1  0.00000000  0.33644300  0.00000000  1
  V  V16  1  0.00000000  0.15740300  0.50000000  1
  V  V17  1  0.00000000  0.50000000  0.50000000  1
  Sn  Sn18  1  0.00000000  0.00000000  0.00000000  1
  Sn  Sn19  1  0.50000000  0.50000000  0.00000000  1
  O  O20  1  0.34052050  0.32434050  0.11006400  1
  O  O21  1  0.65947950  0.32434050  0.88993600  1
  O  O22  1  0.33082050  0.17420750  0.39615400  1
  O  O23  1  0.66917950  0.17420750  0.60384600  1
  O  O24  1  0.17513700  0.00000000  0.60138000  1
  O  O25  1  0.33781500  0.00000000  0.10139600  1
  O  O26  1  0.66218500  0.00000000  0.89860400  1
  O  O27  1  0.82486300  0.00000000  0.39862000  1
  O  O28  1  0.33082050  0.82579250  0.39615400  1
  O  O29  1  0.66917950  0.82579250  0.60384600  1
  O  O30  1  0.34052050  0.67565950  0.11006400  1
  O  O31  1  0.65947950  0.67565950  0.88993600  1
  O  O32  1  0.84052050  0.82434050  0.11006400  1
  O  O33  1  0.15947950  0.82434050  0.88993600  1
  O  O34  1  0.83082050  0.67420750  0.39615400  1
  O  O35  1  0.16917950  0.67420750  0.60384600  1
  O  O36  1  0.67513700  0.50000000  0.60138000  1
  O  O37  1  0.83781500  0.50000000  0.10139600  1
  O  O38  1  0.16218500  0.50000000  0.89860400  1
  O  O39  1  0.32486300  0.50000000  0.39862000  1
  O  O40  1  0.83082050  0.32579250  0.39615400  1
  O  O41  1  0.16917950  0.32579250  0.60384600  1
  O  O42  1  0.84052050  0.17565950  0.11006400  1
  O  O43  1  0.15947950  0.17565950  0.88993600  1
