# generated using pymatgen
data_CuH20S2(NO7)2
_symmetry_space_group_name_H-M   'P 1'
_cell_length_a   6.10171300
_cell_length_b   12.74891100
_cell_length_c   9.45567347
_cell_angle_alpha   90.00000000
_cell_angle_beta   107.21362693
_cell_angle_gamma   90.00000000
_symmetry_Int_Tables_number   1
_chemical_formula_structural   CuH20S2(NO7)2
_chemical_formula_sum   'Cu2 H40 S4 N4 O28'
_cell_volume   702.61155181
_cell_formula_units_Z   2
loop_
 _symmetry_equiv_pos_site_id
 _symmetry_equiv_pos_as_xyz
  1  'x, y, z'
loop_
 _atom_site_type_symbol
 _atom_site_label
 _atom_site_symmetry_multiplicity
 _atom_site_fract_x
 _atom_site_fract_y
 _atom_site_fract_z
 _atom_site_occupancy
  Cu  Cu0  1  0.00000000  0.50000000  0.50000000  1
  Cu  Cu1  1  0.00000000  0.00000000  0.00000000  1
  H  H2  1  0.22922600  0.84660500  0.54142600  1
  H  H3  1  0.77077400  0.34660500  0.95857400  1
  H  H4  1  0.77077400  0.15339500  0.45857400  1
  H  H5  1  0.22922600  0.65339500  0.04142600  1
  H  H6  1  0.42082400  0.80426800  0.70430400  1
  H  H7  1  0.57917600  0.30426800  0.79569600  1
  H  H8  1  0.57917600  0.19573200  0.29569600  1
  H  H9  1  0.42082400  0.69573200  0.20430400  1
  H  H10  1  0.51384600  0.87699600  0.58353700  1
  H  H11  1  0.48615400  0.37699600  0.91646300  1
  H  H12  1  0.48615400  0.12300400  0.41646300  1
  H  H13  1  0.51384600  0.62300400  0.08353700  1
  H  H14  1  0.35090900  0.93266100  0.67883000  1
  H  H15  1  0.64909100  0.43266100  0.82117000  1
  H  H16  1  0.64909100  0.06733900  0.32117000  1
  H  H17  1  0.35090900  0.56733900  0.17883000  1
  H  H18  1  0.32919700  0.59240900  0.69543900  1
  H  H19  1  0.67080300  0.09240900  0.80456100  1
  H  H20  1  0.67080300  0.40759100  0.30456100  1
  H  H21  1  0.32919700  0.90759100  0.19543900  1
  H  H22  1  0.09710900  0.62492000  0.73318100  1
  H  H23  1  0.90289100  0.12492000  0.76681900  1
  H  H24  1  0.90289100  0.37508000  0.26681900  1
  H  H25  1  0.09710900  0.87508000  0.23318100  1
  H  H26  1  0.95234100  0.60206900  0.21592400  1
  H  H27  1  0.04765900  0.10206900  0.28407600  1
  H  H28  1  0.04765900  0.39793100  0.78407600  1
  H  H29  1  0.95234100  0.89793100  0.71592400  1
  H  H30  1  0.02650500  0.68608900  0.34266500  1
  H  H31  1  0.97349500  0.18608900  0.15733500  1
  H  H32  1  0.97349500  0.31391100  0.65733500  1
  H  H33  1  0.02650500  0.81391100  0.84266500  1
  H  H34  1  0.33271600  0.43845300  0.41456700  1
  H  H35  1  0.66728400  0.93845300  0.08543300  1
  H  H36  1  0.66728400  0.56154700  0.58543300  1
  H  H37  1  0.33271600  0.06154700  0.91456700  1
  H  H38  1  0.31591400  0.35963600  0.54357200  1
  H  H39  1  0.68408600  0.85963600  0.95642800  1
  H  H40  1  0.68408600  0.64036400  0.45642800  1
  H  H41  1  0.31591400  0.14036400  0.04357200  1
  S  S42  1  0.74867900  0.64376100  0.88659000  1
  S  S43  1  0.25132100  0.14376100  0.61341000  1
  S  S44  1  0.25132100  0.35623900  0.11341000  1
  S  S45  1  0.74867900  0.85623900  0.38659000  1
  N  N46  1  0.37747700  0.86401900  0.62663700  1
  N  N47  1  0.62252300  0.36401900  0.87336300  1
  N  N48  1  0.62252300  0.13598100  0.37336300  1
  N  N49  1  0.37747700  0.63598100  0.12663700  1
  O  O50  1  0.60562500  0.73952900  0.87938600  1
  O  O51  1  0.39437500  0.23952900  0.62061400  1
  O  O52  1  0.39437500  0.26047100  0.12061400  1
  O  O53  1  0.60562500  0.76047100  0.37938600  1
  O  O54  1  0.77397000  0.58717600  0.02811200  1
  O  O55  1  0.22603000  0.08717600  0.47188800  1
  O  O56  1  0.22603000  0.41282400  0.97188800  1
  O  O57  1  0.77397000  0.91282400  0.52811200  1
  O  O58  1  0.62784600  0.57323300  0.75987900  1
  O  O59  1  0.37215400  0.07323300  0.74012100  1
  O  O60  1  0.37215400  0.42676700  0.24012100  1
  O  O61  1  0.62784600  0.92676700  0.25987900  1
  O  O62  1  0.98019700  0.67264200  0.87317800  1
  O  O63  1  0.01980300  0.17264200  0.62682200  1
  O  O64  1  0.01980300  0.32735800  0.12682200  1
  O  O65  1  0.98019700  0.82735800  0.37317800  1
  O  O66  1  0.16374800  0.60944000  0.65140500  1
  O  O67  1  0.83625200  0.10944000  0.84859500  1
  O  O68  1  0.83625200  0.39056000  0.34859500  1
  O  O69  1  0.16374800  0.89056000  0.15140500  1
  O  O70  1  0.05080600  0.61252700  0.31827300  1
  O  O71  1  0.94919400  0.11252700  0.18172700  1
  O  O72  1  0.94919400  0.38747300  0.68172700  1
  O  O73  1  0.05080600  0.88747300  0.81827300  1
  O  O74  1  0.29863400  0.43458200  0.51101000  1
  O  O75  1  0.70136600  0.93458200  0.98899000  1
  O  O76  1  0.70136600  0.56541800  0.48899000  1
  O  O77  1  0.29863400  0.06541800  0.01101000  1
