# generated using pymatgen
data_CaB5H3O10
_symmetry_space_group_name_H-M   'P 1'
_cell_length_a   6.57974200
_cell_length_b   20.03708500
_cell_length_c   6.62052191
_cell_angle_alpha   90.00000000
_cell_angle_beta   119.36340078
_cell_angle_gamma   90.00000000
_symmetry_Int_Tables_number   1
_chemical_formula_structural   CaB5H3O10
_chemical_formula_sum   'Ca4 B20 H12 O40'
_cell_volume   760.70554859
_cell_formula_units_Z   4
loop_
 _symmetry_equiv_pos_site_id
 _symmetry_equiv_pos_as_xyz
  1  'x, y, z'
loop_
 _atom_site_type_symbol
 _atom_site_label
 _atom_site_symmetry_multiplicity
 _atom_site_fract_x
 _atom_site_fract_y
 _atom_site_fract_z
 _atom_site_occupancy
  Ca  Ca0  1  0.18488100  0.80536500  0.54907500  1
  Ca  Ca1  1  0.18488100  0.69463500  0.04907500  1
  Ca  Ca2  1  0.81511900  0.30536500  0.95092500  1
  Ca  Ca3  1  0.81511900  0.19463500  0.45092500  1
  B  B4  1  0.08759200  0.65515200  0.55882600  1
  B  B5  1  0.22276600  0.31626700  0.83598800  1
  B  B6  1  0.32277700  0.55232700  0.65403200  1
  B  B7  1  0.31953800  0.32811600  0.52742200  1
  B  B8  1  0.08759200  0.84484800  0.05882600  1
  B  B9  1  0.22276600  0.18373300  0.33598800  1
  B  B10  1  0.48575200  0.16009600  0.75651800  1
  B  B11  1  0.51424800  0.66009600  0.74348200  1
  B  B12  1  0.68046200  0.82811600  0.97257800  1
  B  B13  1  0.32277700  0.94767300  0.15403200  1
  B  B14  1  0.67722300  0.05232700  0.84596800  1
  B  B15  1  0.31953800  0.17188400  0.02742200  1
  B  B16  1  0.48575200  0.33990400  0.25651800  1
  B  B17  1  0.51424800  0.83990400  0.24348200  1
  B  B18  1  0.77723400  0.81626700  0.66401200  1
  B  B19  1  0.91240800  0.15515200  0.94117400  1
  B  B20  1  0.68046200  0.67188400  0.47257800  1
  B  B21  1  0.67722300  0.44767300  0.34596800  1
  B  B22  1  0.77723400  0.68373300  0.16401200  1
  B  B23  1  0.91240800  0.34484800  0.44117400  1
  H  H24  1  0.08605900  0.95062700  0.56902200  1
  H  H25  1  0.18333000  0.46152300  0.58805100  1
  H  H26  1  0.35646500  0.94998000  0.64770300  1
  H  H27  1  0.08605900  0.54937300  0.06902200  1
  H  H28  1  0.18333000  0.03847700  0.08805100  1
  H  H29  1  0.64353500  0.44998000  0.85229700  1
  H  H30  1  0.35646500  0.55002000  0.14770300  1
  H  H31  1  0.81667000  0.96152300  0.91194900  1
  H  H32  1  0.91394100  0.45062700  0.93097800  1
  H  H33  1  0.64353500  0.05002000  0.35229700  1
  H  H34  1  0.81667000  0.53847700  0.41194900  1
  H  H35  1  0.91394100  0.04937300  0.43097800  1
  O  O36  1  0.00898800  0.80925300  0.82968300  1
  O  O37  1  0.08913300  0.16606800  0.86673400  1
  O  O38  1  0.00898800  0.69074700  0.32968300  1
  O  O39  1  0.10795700  0.58342100  0.52952400  1
  O  O40  1  0.08913300  0.33393200  0.36673400  1
  O  O41  1  0.20966800  0.92395100  0.57052600  1
  O  O42  1  0.29942100  0.68812700  0.73267400  1
  O  O43  1  0.27343400  0.18886600  0.56003500  1
  O  O44  1  0.33760000  0.48335200  0.66326100  1
  O  O45  1  0.38899000  0.32724700  0.76698800  1
  O  O46  1  0.49533200  0.17848700  0.97970600  1
  O  O47  1  0.10795700  0.91657900  0.02952400  1
  O  O48  1  0.47543900  0.08763600  0.72980300  1
  O  O49  1  0.52456100  0.58763600  0.77019700  1
  O  O50  1  0.20966800  0.57604900  0.07052600  1
  O  O51  1  0.29942100  0.81187300  0.23267400  1
  O  O52  1  0.27343400  0.31113400  0.06003500  1
  O  O53  1  0.50466800  0.67848700  0.52029400  1
  O  O54  1  0.61101000  0.82724700  0.73301200  1
  O  O55  1  0.66240000  0.98335200  0.83673900  1
  O  O56  1  0.33760000  0.01664800  0.16326100  1
  O  O57  1  0.38899000  0.17275300  0.26698800  1
  O  O58  1  0.49533200  0.32151300  0.47970600  1
  O  O59  1  0.72656600  0.68886600  0.93996500  1
  O  O60  1  0.70057900  0.18812700  0.76732600  1
  O  O61  1  0.79033200  0.42395100  0.92947400  1
  O  O62  1  0.47543900  0.41236400  0.22980300  1
  O  O63  1  0.52456100  0.91236400  0.27019700  1
  O  O64  1  0.89204300  0.08342100  0.97047600  1
  O  O65  1  0.50466800  0.82151300  0.02029400  1
  O  O66  1  0.61101000  0.67275300  0.23301200  1
  O  O67  1  0.66240000  0.51664800  0.33673900  1
  O  O68  1  0.72656600  0.81113400  0.43996500  1
  O  O69  1  0.70057900  0.31187300  0.26732600  1
  O  O70  1  0.79033200  0.07604900  0.42947400  1
  O  O71  1  0.91086700  0.66606800  0.63326600  1
  O  O72  1  0.89204300  0.41657900  0.47047600  1
  O  O73  1  0.99101200  0.30925300  0.67031700  1
  O  O74  1  0.91086700  0.83393200  0.13326600  1
  O  O75  1  0.99101200  0.19074700  0.17031700  1
