# generated using pymatgen
data_V3SnO8
_symmetry_space_group_name_H-M   'P 1'
_cell_length_a   12.55522200
_cell_length_b   3.85797200
_cell_length_c   6.61842078
_cell_angle_alpha   90.00000000
_cell_angle_beta   106.63950012
_cell_angle_gamma   90.00000000
_symmetry_Int_Tables_number   1
_chemical_formula_structural   V3SnO8
_chemical_formula_sum   'V6 Sn2 O16'
_cell_volume   307.15684079
_cell_formula_units_Z   2
loop_
 _symmetry_equiv_pos_site_id
 _symmetry_equiv_pos_as_xyz
  1  'x, y, z'
loop_
 _atom_site_type_symbol
 _atom_site_label
 _atom_site_symmetry_multiplicity
 _atom_site_fract_x
 _atom_site_fract_y
 _atom_site_fract_z
 _atom_site_occupancy
  V  V0  1  0.40388400  0.00000000  0.31870000  1
  V  V1  1  0.10516000  0.50000000  0.71174400  1
  V  V2  1  0.30068200  0.00000000  0.72701100  1
  V  V3  1  0.90388400  0.50000000  0.31870000  1
  V  V4  1  0.60516000  0.00000000  0.71174400  1
  V  V5  1  0.80068200  0.50000000  0.72701100  1
  Sn  Sn6  1  0.19794300  0.50000000  0.29280400  1
  Sn  Sn7  1  0.69794300  0.00000000  0.29280400  1
  O  O8  1  0.13911200  0.00000000  0.69585400  1
  O  O9  1  0.24247900  0.00000000  0.35181700  1
  O  O10  1  0.36309900  0.00000000  0.98815500  1
  O  O11  1  0.43969500  0.00000000  0.61722000  1
  O  O12  1  0.05732700  0.50000000  0.37822400  1
  O  O13  1  0.12520000  0.50000000  0.98309700  1
  O  O14  1  0.25847400  0.50000000  0.64899100  1
  O  O15  1  0.36694500  0.50000000  0.28638600  1
  O  O16  1  0.63911200  0.50000000  0.69585400  1
  O  O17  1  0.74247900  0.50000000  0.35181700  1
  O  O18  1  0.86309900  0.50000000  0.98815500  1
  O  O19  1  0.93969500  0.50000000  0.61722000  1
  O  O20  1  0.55732700  0.00000000  0.37822400  1
  O  O21  1  0.62520000  0.00000000  0.98309700  1
  O  O22  1  0.75847400  0.00000000  0.64899100  1
  O  O23  1  0.86694500  0.00000000  0.28638600  1
