# generated using pymatgen
data_Ta2Co4O9
_symmetry_space_group_name_H-M   'P 1'
_cell_length_a   5.19834900
_cell_length_b   8.94225206
_cell_length_c   14.56418926
_cell_angle_alpha   90.00000000
_cell_angle_beta   90.00000000
_cell_angle_gamma   90.00000000
_symmetry_Int_Tables_number   1
_chemical_formula_structural   Ta2Co4O9
_chemical_formula_sum   'Ta8 Co16 O36'
_cell_volume   677.01556621
_cell_formula_units_Z   4
loop_
 _symmetry_equiv_pos_site_id
 _symmetry_equiv_pos_as_xyz
  1  'x, y, z'
loop_
 _atom_site_type_symbol
 _atom_site_label
 _atom_site_symmetry_multiplicity
 _atom_site_fract_x
 _atom_site_fract_y
 _atom_site_fract_z
 _atom_site_occupancy
  Ta  Ta0  1  0.99986400  0.02349050  0.89474400  1
  Ta  Ta1  1  0.99986400  0.97650950  0.10525600  1
  Ta  Ta2  1  0.50054000  0.47448050  0.39576600  1
  Ta  Ta3  1  0.50054000  0.52551950  0.60423400  1
  Ta  Ta4  1  0.49986400  0.52349050  0.10525600  1
  Ta  Ta5  1  0.49986400  0.47650950  0.89474400  1
  Ta  Ta6  1  0.00054000  0.02551950  0.39576600  1
  Ta  Ta7  1  0.00054000  0.97448050  0.60423400  1
  Co  Co8  1  0.99993100  0.33617550  0.05830500  1
  Co  Co9  1  0.99993100  0.66382450  0.94169500  1
  Co  Co10  1  0.99624000  0.66265650  0.24881300  1
  Co  Co11  1  0.99624000  0.33734350  0.75118700  1
  Co  Co12  1  0.50285200  0.16305350  0.25169000  1
  Co  Co13  1  0.50285200  0.83694650  0.74831000  1
  Co  Co14  1  0.50106300  0.83480050  0.43813500  1
  Co  Co15  1  0.50106300  0.16519950  0.56186500  1
  Co  Co16  1  0.49993100  0.83617550  0.94169500  1
  Co  Co17  1  0.49993100  0.16382450  0.05830500  1
  Co  Co18  1  0.49624000  0.16265650  0.75118700  1
  Co  Co19  1  0.49624000  0.83734350  0.24881300  1
  Co  Co20  1  0.00285200  0.33694650  0.25169000  1
  Co  Co21  1  0.00285200  0.66305350  0.74831000  1
  Co  Co22  1  0.00106300  0.66519950  0.43813500  1
  Co  Co23  1  0.00106300  0.33480050  0.56186500  1
  O  O24  1  0.85380400  0.14578250  0.49939300  1
  O  O25  1  0.85380400  0.85421750  0.50060700  1
  O  O26  1  0.83645700  0.16822450  0.82331700  1
  O  O27  1  0.83645700  0.83177550  0.17668300  1
  O  O28  1  0.82888000  0.49299050  0.16321100  1
  O  O29  1  0.82888000  0.50700950  0.83678900  1
  O  O30  1  0.82652100  0.15942750  0.15411300  1
  O  O31  1  0.82652100  0.84057250  0.84588700  1
  O  O32  1  0.78499700  0.50000000  0.50000000  1
  O  O33  1  0.71665300  0.00000000  0.00000000  1
  O  O34  1  0.66993500  0.33824050  0.65256000  1
  O  O35  1  0.66993500  0.66175950  0.34744000  1
  O  O36  1  0.67313500  0.99334450  0.33612500  1
  O  O37  1  0.67313500  0.00665550  0.66387500  1
  O  O38  1  0.66476000  0.33173050  0.32310600  1
  O  O39  1  0.66476000  0.66826950  0.67689400  1
  O  O40  1  0.64404900  0.35343150  0.00020300  1
  O  O41  1  0.64404900  0.64656850  0.99979700  1
  O  O42  1  0.35380400  0.64578250  0.50060700  1
  O  O43  1  0.35380400  0.35421750  0.49939300  1
  O  O44  1  0.33645700  0.66822450  0.17668300  1
  O  O45  1  0.33645700  0.33177550  0.82331700  1
  O  O46  1  0.32888000  0.00700950  0.16321100  1
  O  O47  1  0.32888000  0.99299050  0.83678900  1
  O  O48  1  0.32652100  0.34057250  0.15411300  1
  O  O49  1  0.32652100  0.65942750  0.84588700  1
  O  O50  1  0.28499700  0.00000000  0.50000000  1
  O  O51  1  0.21665300  0.50000000  0.00000000  1
  O  O52  1  0.16993500  0.16175950  0.65256000  1
  O  O53  1  0.16993500  0.83824050  0.34744000  1
  O  O54  1  0.17313500  0.49334450  0.66387500  1
  O  O55  1  0.17313500  0.50665550  0.33612500  1
  O  O56  1  0.16476000  0.16826950  0.32310600  1
  O  O57  1  0.16476000  0.83173050  0.67689400  1
  O  O58  1  0.14404900  0.14656850  0.00020300  1
  O  O59  1  0.14404900  0.85343150  0.99979700  1
