# generated using pymatgen
data_K2SrTa2O7
_symmetry_space_group_name_H-M   'P 1'
_cell_length_a   4.01787200
_cell_length_b   4.01787200
_cell_length_c   22.08871200
_cell_angle_alpha   90.00000000
_cell_angle_beta   90.00000000
_cell_angle_gamma   90.00000000
_symmetry_Int_Tables_number   1
_chemical_formula_structural   K2SrTa2O7
_chemical_formula_sum   'K4 Sr2 Ta4 O14'
_cell_volume   356.58460301
_cell_formula_units_Z   2
loop_
 _symmetry_equiv_pos_site_id
 _symmetry_equiv_pos_as_xyz
  1  'x, y, z'
loop_
 _atom_site_type_symbol
 _atom_site_label
 _atom_site_symmetry_multiplicity
 _atom_site_fract_x
 _atom_site_fract_y
 _atom_site_fract_z
 _atom_site_occupancy
  K  K0  1  0.50000000  0.50000000  0.30683000  1
  K  K1  1  0.00000000  0.00000000  0.19317000  1
  K  K2  1  0.00000000  0.00000000  0.80683000  1
  K  K3  1  0.50000000  0.50000000  0.69317000  1
  Sr  Sr4  1  0.00000000  0.00000000  0.00000000  1
  Sr  Sr5  1  0.50000000  0.50000000  0.50000000  1
  Ta  Ta6  1  0.50000000  0.50000000  0.09606600  1
  Ta  Ta7  1  0.00000000  0.00000000  0.40393400  1
  Ta  Ta8  1  0.00000000  0.00000000  0.59606600  1
  Ta  Ta9  1  0.50000000  0.50000000  0.90393400  1
  O  O10  1  0.50000000  0.50000000  0.00000000  1
  O  O11  1  0.00000000  0.00000000  0.31908900  1
  O  O12  1  0.50000000  0.50000000  0.18091100  1
  O  O13  1  0.00000000  0.50000000  0.41261700  1
  O  O14  1  0.50000000  0.00000000  0.41261700  1
  O  O15  1  0.00000000  0.50000000  0.08738300  1
  O  O16  1  0.50000000  0.00000000  0.08738300  1
  O  O17  1  0.00000000  0.00000000  0.50000000  1
  O  O18  1  0.50000000  0.50000000  0.81908900  1
  O  O19  1  0.00000000  0.00000000  0.68091100  1
  O  O20  1  0.50000000  0.00000000  0.91261700  1
  O  O21  1  0.00000000  0.50000000  0.91261700  1
  O  O22  1  0.50000000  0.00000000  0.58738300  1
  O  O23  1  0.00000000  0.50000000  0.58738300  1
