# generated using pymatgen
data_Na2CuP
_symmetry_space_group_name_H-M   'P 1'
_cell_length_a   6.94328400
_cell_length_b   8.69086400
_cell_length_c   5.24692700
_cell_angle_alpha   90.00000000
_cell_angle_beta   90.00000000
_cell_angle_gamma   90.00000000
_symmetry_Int_Tables_number   1
_chemical_formula_structural   Na2CuP
_chemical_formula_sum   'Na8 Cu4 P4'
_cell_volume   316.61603457
_cell_formula_units_Z   4
loop_
 _symmetry_equiv_pos_site_id
 _symmetry_equiv_pos_as_xyz
  1  'x, y, z'
loop_
 _atom_site_type_symbol
 _atom_site_label
 _atom_site_symmetry_multiplicity
 _atom_site_fract_x
 _atom_site_fract_y
 _atom_site_fract_z
 _atom_site_occupancy
  Na  Na0  1  0.35713900  0.67400600  0.25000000  1
  Na  Na1  1  0.64286100  0.32599400  0.75000000  1
  Na  Na2  1  0.35713900  0.32599400  0.25000000  1
  Na  Na3  1  0.64286100  0.67400600  0.75000000  1
  Na  Na4  1  0.85713900  0.17400600  0.25000000  1
  Na  Na5  1  0.14286100  0.82599400  0.75000000  1
  Na  Na6  1  0.85713900  0.82599400  0.25000000  1
  Na  Na7  1  0.14286100  0.17400600  0.75000000  1
  Cu  Cu8  1  0.50000000  0.00000000  0.50000000  1
  Cu  Cu9  1  0.50000000  0.00000000  0.00000000  1
  Cu  Cu10  1  0.00000000  0.50000000  0.50000000  1
  Cu  Cu11  1  0.00000000  0.50000000  0.00000000  1
  P  P12  1  0.76209900  0.00000000  0.75000000  1
  P  P13  1  0.23790100  0.00000000  0.25000000  1
  P  P14  1  0.26209900  0.50000000  0.75000000  1
  P  P15  1  0.73790100  0.50000000  0.25000000  1
