# generated using pymatgen
data_CuPO3
_symmetry_space_group_name_H-M   'P 1'
_cell_length_a   10.85654200
_cell_length_b   4.73416700
_cell_length_c   12.18082849
_cell_angle_alpha   90.00000000
_cell_angle_beta   120.42990920
_cell_angle_gamma   90.00000000
_symmetry_Int_Tables_number   1
_chemical_formula_structural   CuPO3
_chemical_formula_sum   'Cu8 P8 O24'
_cell_volume   539.81483728
_cell_formula_units_Z   8
loop_
 _symmetry_equiv_pos_site_id
 _symmetry_equiv_pos_as_xyz
  1  'x, y, z'
loop_
 _atom_site_type_symbol
 _atom_site_label
 _atom_site_symmetry_multiplicity
 _atom_site_fract_x
 _atom_site_fract_y
 _atom_site_fract_z
 _atom_site_occupancy
  Cu  Cu0  1  0.54290000  0.82851200  0.83487600  1
  Cu  Cu1  1  0.14155900  0.46962300  0.99026400  1
  Cu  Cu2  1  0.45710000  0.32851200  0.66512400  1
  Cu  Cu3  1  0.85844100  0.96962300  0.50973600  1
  Cu  Cu4  1  0.14155900  0.03037700  0.49026400  1
  Cu  Cu5  1  0.54290000  0.67148800  0.33487600  1
  Cu  Cu6  1  0.85844100  0.53037700  0.00973600  1
  Cu  Cu7  1  0.45710000  0.17148800  0.16512400  1
  P  P8  1  0.79318000  0.18569000  0.79828700  1
  P  P9  1  0.29526700  0.18710400  0.86094800  1
  P  P10  1  0.20682000  0.68569000  0.70171300  1
  P  P11  1  0.70473300  0.68710400  0.63905200  1
  P  P12  1  0.29526700  0.31289600  0.36094800  1
  P  P13  1  0.79318000  0.31431000  0.29828700  1
  P  P14  1  0.70473300  0.81289600  0.13905200  1
  P  P15  1  0.20682000  0.81431000  0.20171300  1
  O  O16  1  0.65507800  0.18029000  0.79876300  1
  O  O17  1  0.43406000  0.18874500  0.86514200  1
  O  O18  1  0.28994000  0.27373600  0.97912300  1
  O  O19  1  0.56594000  0.68874500  0.63485800  1
  O  O20  1  0.21781300  0.88176100  0.81686600  1
  O  O21  1  0.17538900  0.38372600  0.74374900  1
  O  O22  1  0.92608900  0.27449300  0.92093200  1
  O  O23  1  0.34492200  0.68029000  0.70123700  1
  O  O24  1  0.07391100  0.77449300  0.57906800  1
  O  O25  1  0.82461100  0.88372600  0.75625100  1
  O  O26  1  0.78218700  0.38176100  0.68313400  1
  O  O27  1  0.28994000  0.22626400  0.47912300  1
  O  O28  1  0.71006000  0.77373600  0.52087700  1
  O  O29  1  0.21781300  0.61823900  0.31686600  1
  O  O30  1  0.17538900  0.11627400  0.24374900  1
  O  O31  1  0.92608900  0.22550700  0.42093200  1
  O  O32  1  0.65507800  0.31971000  0.29876300  1
  O  O33  1  0.07391100  0.72550700  0.07906800  1
  O  O34  1  0.82461100  0.61627400  0.25625100  1
  O  O35  1  0.78218700  0.11823900  0.18313400  1
  O  O36  1  0.43406000  0.31125500  0.36514200  1
  O  O37  1  0.71006000  0.72626400  0.02087700  1
  O  O38  1  0.56594000  0.81125500  0.13485800  1
  O  O39  1  0.34492200  0.81971000  0.20123700  1
