# generated using pymatgen
data_LiCr3O4
_symmetry_space_group_name_H-M   'P 1'
_cell_length_a   6.61466400
_cell_length_b   8.35089000
_cell_length_c   3.17624055
_cell_angle_alpha   90.00000000
_cell_angle_beta   99.57450391
_cell_angle_gamma   90.00000000
_symmetry_Int_Tables_number   1
_chemical_formula_structural   LiCr3O4
_chemical_formula_sum   'Li2 Cr6 O8'
_cell_volume   173.00623315
_cell_formula_units_Z   2
loop_
 _symmetry_equiv_pos_site_id
 _symmetry_equiv_pos_as_xyz
  1  'x, y, z'
loop_
 _atom_site_type_symbol
 _atom_site_label
 _atom_site_symmetry_multiplicity
 _atom_site_fract_x
 _atom_site_fract_y
 _atom_site_fract_z
 _atom_site_occupancy
  Li  Li0  1  0.50000000  0.00000000  0.50000000  1
  Li  Li1  1  0.00000000  0.50000000  0.50000000  1
  Cr  Cr2  1  0.75000000  0.25000000  0.00000000  1
  Cr  Cr3  1  0.00000000  0.00000000  0.50000000  1
  Cr  Cr4  1  0.75000000  0.75000000  0.00000000  1
  Cr  Cr5  1  0.25000000  0.75000000  0.00000000  1
  Cr  Cr6  1  0.50000000  0.50000000  0.50000000  1
  Cr  Cr7  1  0.25000000  0.25000000  0.00000000  1
  O  O8  1  0.21164300  0.00000000  0.06062900  1
  O  O9  1  0.50000000  0.74392600  0.50000000  1
  O  O10  1  0.50000000  0.25607400  0.50000000  1
  O  O11  1  0.78835700  0.00000000  0.93937100  1
  O  O12  1  0.71164300  0.50000000  0.06062900  1
  O  O13  1  0.00000000  0.24392600  0.50000000  1
  O  O14  1  0.00000000  0.75607400  0.50000000  1
  O  O15  1  0.28835700  0.50000000  0.93937100  1
