# generated using pymatgen
data_Li7CrO6
_symmetry_space_group_name_H-M   'P 1'
_cell_length_a   9.64966600
_cell_length_b   5.64051800
_cell_length_c   10.73392005
_cell_angle_alpha   90.00000000
_cell_angle_beta   90.02533865
_cell_angle_gamma   90.00000000
_symmetry_Int_Tables_number   1
_chemical_formula_structural   Li7CrO6
_chemical_formula_sum   'Li28 Cr4 O24'
_cell_volume   584.23770915
_cell_formula_units_Z   4
loop_
 _symmetry_equiv_pos_site_id
 _symmetry_equiv_pos_as_xyz
  1  'x, y, z'
loop_
 _atom_site_type_symbol
 _atom_site_label
 _atom_site_symmetry_multiplicity
 _atom_site_fract_x
 _atom_site_fract_y
 _atom_site_fract_z
 _atom_site_occupancy
  Li  Li0  1  0.68858600  0.31039800  0.25890500  1
  Li  Li1  1  0.19353850  0.80687650  0.86191500  1
  Li  Li2  1  0.48626950  0.19361950  0.73831100  1
  Li  Li3  1  0.84093100  0.13249900  0.74163500  1
  Li  Li4  1  0.49925850  0.11378650  0.36325400  1
  Li  Li5  1  0.65878350  0.00680550  0.59292200  1
  Li  Li6  1  0.33040500  0.01879100  0.09198600  1
  Li  Li7  1  0.65878350  0.99319450  0.09292200  1
  Li  Li8  1  0.33040500  0.98120900  0.59198600  1
  Li  Li9  1  0.49925850  0.88621350  0.86325400  1
  Li  Li10  1  0.84093100  0.86750100  0.24163500  1
  Li  Li11  1  0.48626950  0.80638050  0.23831100  1
  Li  Li12  1  0.19353850  0.19312350  0.36191500  1
  Li  Li13  1  0.68858600  0.68960200  0.75890500  1
  Li  Li14  1  0.18858600  0.81039800  0.25890500  1
  Li  Li15  1  0.69353850  0.30687650  0.86191500  1
  Li  Li16  1  0.98626950  0.69361950  0.73831100  1
  Li  Li17  1  0.34093100  0.63249900  0.74163500  1
  Li  Li18  1  0.99925850  0.61378650  0.36325400  1
  Li  Li19  1  0.15878350  0.50680550  0.59292200  1
  Li  Li20  1  0.83040500  0.51879100  0.09198600  1
  Li  Li21  1  0.15878350  0.49319450  0.09292200  1
  Li  Li22  1  0.83040500  0.48120900  0.59198600  1
  Li  Li23  1  0.99925850  0.38621350  0.86325400  1
  Li  Li24  1  0.34093100  0.36750100  0.24163500  1
  Li  Li25  1  0.98626950  0.30638050  0.23831100  1
  Li  Li26  1  0.69353850  0.69312350  0.36191500  1
  Li  Li27  1  0.18858600  0.18960200  0.75890500  1
  Cr  Cr28  1  0.49783650  0.50690250  0.50199100  1
  Cr  Cr29  1  0.49783650  0.49309750  0.00199100  1
  Cr  Cr30  1  0.99783650  0.00690250  0.50199100  1
  Cr  Cr31  1  0.99783650  0.99309750  0.00199100  1
  O  O32  1  0.14877100  0.85288800  0.04790700  1
  O  O33  1  0.49496400  0.20786500  0.54849600  1
  O  O34  1  0.84913500  0.13429400  0.55358900  1
  O  O35  1  0.65575950  0.01889250  0.77483400  1
  O  O36  1  0.33652050  0.02596850  0.27373700  1
  O  O37  1  0.01091400  0.00761400  0.83867300  1
  O  O38  1  0.01091400  0.99238600  0.33867300  1
  O  O39  1  0.65575950  0.98110750  0.27483400  1
  O  O40  1  0.33652050  0.97403150  0.77373700  1
  O  O41  1  0.84913500  0.86570600  0.05358900  1
  O  O42  1  0.49496400  0.79213500  0.04849600  1
  O  O43  1  0.14877100  0.14711200  0.54790700  1
  O  O44  1  0.64877100  0.35288800  0.04790700  1
  O  O45  1  0.99496400  0.70786500  0.54849600  1
  O  O46  1  0.34913500  0.63429400  0.55358900  1
  O  O47  1  0.15575950  0.51889250  0.77483400  1
  O  O48  1  0.83652050  0.52596850  0.27373700  1
  O  O49  1  0.51091400  0.50761400  0.83867300  1
  O  O50  1  0.51091400  0.49238600  0.33867300  1
  O  O51  1  0.15575950  0.48110750  0.27483400  1
  O  O52  1  0.83652050  0.47403150  0.77373700  1
  O  O53  1  0.34913500  0.36570600  0.05358900  1
  O  O54  1  0.99496400  0.29213500  0.04849600  1
  O  O55  1  0.64877100  0.64711200  0.54790700  1
