# generated using pymatgen
data_Ba2Y5F19
_symmetry_space_group_name_H-M   'P 1'
_cell_length_a   7.88915300
_cell_length_b   6.31772300
_cell_length_c   26.22109139
_cell_angle_alpha   90.00000000
_cell_angle_beta   95.84057368
_cell_angle_gamma   90.00000000
_symmetry_Int_Tables_number   1
_chemical_formula_structural   Ba2Y5F19
_chemical_formula_sum   'Ba4 Y10 F38'
_cell_volume   1300.11384737
_cell_formula_units_Z   2
loop_
 _symmetry_equiv_pos_site_id
 _symmetry_equiv_pos_as_xyz
  1  'x, y, z'
loop_
 _atom_site_type_symbol
 _atom_site_label
 _atom_site_symmetry_multiplicity
 _atom_site_fract_x
 _atom_site_fract_y
 _atom_site_fract_z
 _atom_site_occupancy
  Ba  Ba0  1  0.76368300  0.26443600  0.26191300  1
  Ba  Ba1  1  0.76608800  0.23258100  0.82928500  1
  Ba  Ba2  1  0.23391200  0.73258100  0.17071500  1
  Ba  Ba3  1  0.23631700  0.76443600  0.73808700  1
  Y  Y4  1  0.84107800  0.74104500  0.03036900  1
  Y  Y5  1  0.82967000  0.75383900  0.46429400  1
  Y  Y6  1  0.86143300  0.25881400  0.66747000  1
  Y  Y7  1  0.55799800  0.23583300  0.09945400  1
  Y  Y8  1  0.46924700  0.25360900  0.40331900  1
  Y  Y9  1  0.53075300  0.75360900  0.59668100  1
  Y  Y10  1  0.44200200  0.73583300  0.90054600  1
  Y  Y11  1  0.13856700  0.75881400  0.33253000  1
  Y  Y12  1  0.17033000  0.25383900  0.53570600  1
  Y  Y13  1  0.15892200  0.24104500  0.96963100  1
  F  F14  1  0.98864400  0.47482300  0.00207900  1
  F  F15  1  0.99035700  0.02181300  0.29676500  1
  F  F16  1  0.96694300  0.74654800  0.39511800  1
  F  F17  1  0.95920900  0.56696500  0.28140500  1
  F  F18  1  0.99508800  0.49746700  0.49940200  1
  F  F19  1  0.70842100  0.01934600  0.05699600  1
  F  F20  1  0.01320200  0.24130700  0.89510600  1
  F  F21  1  0.67600600  0.51060700  0.06491400  1
  F  F22  1  0.74839300  0.22831500  0.16620200  1
  F  F23  1  0.66019100  0.01295200  0.43295600  1
  F  F24  1  0.70930500  0.26431500  0.73293100  1
  F  F25  1  0.71729100  0.98868100  0.63145700  1
  F  F26  1  0.56520100  0.25006900  0.32879000  1
  F  F27  1  0.67755600  0.75606600  0.52976400  1
  F  F28  1  0.64956000  0.50835100  0.43087000  1
  F  F29  1  0.69393100  0.48610800  0.62439700  1
  F  F30  1  0.59421000  0.92198400  0.85027600  1
  F  F31  1  0.34673600  0.24830200  0.03744800  1
  F  F32  1  0.43354000  0.96370900  0.13084200  1
  F  F33  1  0.56646000  0.46370900  0.86915800  1
  F  F34  1  0.65326400  0.74830200  0.96255200  1
  F  F35  1  0.40579000  0.42198400  0.14972400  1
  F  F36  1  0.30606900  0.98610800  0.37560300  1
  F  F37  1  0.35044000  0.00835100  0.56913000  1
  F  F38  1  0.32244400  0.25606600  0.47023600  1
  F  F39  1  0.43479900  0.75006900  0.67121000  1
  F  F40  1  0.28270900  0.48868100  0.36854300  1
  F  F41  1  0.29069500  0.76431500  0.26706900  1
  F  F42  1  0.33980900  0.51295200  0.56704400  1
  F  F43  1  0.25160700  0.72831500  0.83379800  1
  F  F44  1  0.32399400  0.01060700  0.93508600  1
  F  F45  1  0.98679800  0.74130700  0.10489400  1
  F  F46  1  0.29157900  0.51934600  0.94300400  1
  F  F47  1  0.00491200  0.99746700  0.50059800  1
  F  F48  1  0.04079100  0.06696500  0.71859500  1
  F  F49  1  0.03305700  0.24654800  0.60488200  1
  F  F50  1  0.00964300  0.52181300  0.70323500  1
  F  F51  1  0.01135600  0.97482300  0.99792100  1
