# generated using pymatgen
data_Y4Cu2O7
_symmetry_space_group_name_H-M   'P 1'
_cell_length_a   12.23018200
_cell_length_b   3.67946800
_cell_length_c   8.34083363
_cell_angle_alpha   90.00000000
_cell_angle_beta   109.48006698
_cell_angle_gamma   90.00000000
_symmetry_Int_Tables_number   1
_chemical_formula_structural   Y4Cu2O7
_chemical_formula_sum   'Y8 Cu4 O14'
_cell_volume   353.85670947
_cell_formula_units_Z   2
loop_
 _symmetry_equiv_pos_site_id
 _symmetry_equiv_pos_as_xyz
  1  'x, y, z'
loop_
 _atom_site_type_symbol
 _atom_site_label
 _atom_site_symmetry_multiplicity
 _atom_site_fract_x
 _atom_site_fract_y
 _atom_site_fract_z
 _atom_site_occupancy
  Y  Y0  1  0.64414000  0.00000000  0.83681800  1
  Y  Y1  1  0.83747500  0.50000000  0.67896700  1
  Y  Y2  1  0.66252500  0.00000000  0.32103300  1
  Y  Y3  1  0.85586000  0.50000000  0.16318200  1
  Y  Y4  1  0.14414000  0.50000000  0.83681800  1
  Y  Y5  1  0.33747500  0.00000000  0.67896700  1
  Y  Y6  1  0.16252500  0.50000000  0.32103300  1
  Y  Y7  1  0.35586000  0.00000000  0.16318200  1
  Cu  Cu8  1  0.00000000  0.00000000  0.00000000  1
  Cu  Cu9  1  0.00000000  0.00000000  0.50000000  1
  Cu  Cu10  1  0.50000000  0.50000000  0.00000000  1
  Cu  Cu11  1  0.50000000  0.50000000  0.50000000  1
  O  O12  1  0.75161500  0.50000000  0.87959400  1
  O  O13  1  0.00000000  0.50000000  0.00000000  1
  O  O14  1  0.51146000  0.50000000  0.28754400  1
  O  O15  1  0.72258600  0.00000000  0.61401300  1
  O  O16  1  0.77741400  0.50000000  0.38598700  1
  O  O17  1  0.98854000  0.00000000  0.71245600  1
  O  O18  1  0.74838500  0.00000000  0.12040600  1
  O  O19  1  0.25161500  0.00000000  0.87959400  1
  O  O20  1  0.50000000  0.00000000  0.00000000  1
  O  O21  1  0.01146000  0.00000000  0.28754400  1
  O  O22  1  0.22258600  0.50000000  0.61401300  1
  O  O23  1  0.27741400  0.00000000  0.38598700  1
  O  O24  1  0.48854000  0.50000000  0.71245600  1
  O  O25  1  0.24838500  0.50000000  0.12040600  1
