# generated using pymatgen
data_LiNbVO4
_symmetry_space_group_name_H-M   'P 1'
_cell_length_a   6.16682050
_cell_length_b   6.16682050
_cell_length_c   8.77074000
_cell_angle_alpha   90.00000000
_cell_angle_beta   90.00000000
_cell_angle_gamma   90.00000000
_symmetry_Int_Tables_number   1
_chemical_formula_structural   LiNbVO4
_chemical_formula_sum   'Li4 Nb4 V4 O16'
_cell_volume   333.54839241
_cell_formula_units_Z   4
loop_
 _symmetry_equiv_pos_site_id
 _symmetry_equiv_pos_as_xyz
  1  'x, y, z'
loop_
 _atom_site_type_symbol
 _atom_site_label
 _atom_site_symmetry_multiplicity
 _atom_site_fract_x
 _atom_site_fract_y
 _atom_site_fract_z
 _atom_site_occupancy
  Li  Li0  1  0.50000000  0.73044700  0.00000000  1
  Li  Li1  1  0.50000000  0.26955300  0.50000000  1
  Li  Li2  1  0.73044700  0.50000000  0.25000000  1
  Li  Li3  1  0.26955300  0.50000000  0.75000000  1
  Nb  Nb4  1  0.75312350  0.75312350  0.62500000  1
  Nb  Nb5  1  0.75312350  0.24687650  0.87500000  1
  Nb  Nb6  1  0.24687650  0.75312350  0.37500000  1
  Nb  Nb7  1  0.24687650  0.24687650  0.12500000  1
  V  V8  1  0.74211400  0.00000000  0.25000000  1
  V  V9  1  0.00000000  0.74211400  0.00000000  1
  V  V10  1  0.00000000  0.25788600  0.50000000  1
  V  V11  1  0.25788600  0.00000000  0.75000000  1
  O  O12  1  0.49835100  0.75362100  0.25415400  1
  O  O13  1  0.49835100  0.24637900  0.24584600  1
  O  O14  1  0.75362100  0.49835100  0.99584600  1
  O  O15  1  0.75362100  0.50164900  0.50415400  1
  O  O16  1  0.75588800  0.99818900  0.00412700  1
  O  O17  1  0.75588800  0.00181100  0.49587300  1
  O  O18  1  0.99818900  0.75588800  0.24587300  1
  O  O19  1  0.99818900  0.24411200  0.25412700  1
  O  O20  1  0.00181100  0.75588800  0.75412700  1
  O  O21  1  0.00181100  0.24411200  0.74587300  1
  O  O22  1  0.24411200  0.00181100  0.50412700  1
  O  O23  1  0.24411200  0.99818900  0.99587300  1
  O  O24  1  0.24637900  0.49835100  0.00415400  1
  O  O25  1  0.24637900  0.50164900  0.49584600  1
  O  O26  1  0.50164900  0.75362100  0.74584600  1
  O  O27  1  0.50164900  0.24637900  0.75415400  1
