# generated using pymatgen
data_Li2Fe2(CO3)3
_symmetry_space_group_name_H-M   'P 1'
_cell_length_a   7.07596546
_cell_length_b   9.80193000
_cell_length_c   10.08856953
_cell_angle_alpha   90.00000000
_cell_angle_beta   90.00000000
_cell_angle_gamma   90.00000000
_symmetry_Int_Tables_number   1
_chemical_formula_structural   Li2Fe2(CO3)3
_chemical_formula_sum   'Li8 Fe8 C12 O36'
_cell_volume   699.72419763
_cell_formula_units_Z   4
loop_
 _symmetry_equiv_pos_site_id
 _symmetry_equiv_pos_as_xyz
  1  'x, y, z'
loop_
 _atom_site_type_symbol
 _atom_site_label
 _atom_site_symmetry_multiplicity
 _atom_site_fract_x
 _atom_site_fract_y
 _atom_site_fract_z
 _atom_site_occupancy
  Li  Li0  1  0.42318250  0.70098050  0.24604600  1
  Li  Li1  1  0.42318250  0.70098050  0.75395400  1
  Li  Li2  1  0.42318250  0.29901950  0.24604600  1
  Li  Li3  1  0.42318250  0.29901950  0.75395400  1
  Li  Li4  1  0.92318250  0.20098050  0.24604600  1
  Li  Li5  1  0.92318250  0.20098050  0.75395400  1
  Li  Li6  1  0.92318250  0.79901950  0.24604600  1
  Li  Li7  1  0.92318250  0.79901950  0.75395400  1
  Fe  Fe8  1  0.59669000  0.00000000  0.25531600  1
  Fe  Fe9  1  0.59669000  0.00000000  0.74468400  1
  Fe  Fe10  1  0.93427850  0.00000000  0.50000000  1
  Fe  Fe11  1  0.91780800  0.00000000  0.00000000  1
  Fe  Fe12  1  0.09669000  0.50000000  0.25531600  1
  Fe  Fe13  1  0.09669000  0.50000000  0.74468400  1
  Fe  Fe14  1  0.43427850  0.50000000  0.50000000  1
  Fe  Fe15  1  0.41780800  0.50000000  0.00000000  1
  C  C16  1  0.24103700  0.00000000  0.24974700  1
  C  C17  1  0.24103700  0.00000000  0.75025300  1
  C  C18  1  0.67053800  0.79596700  0.00000000  1
  C  C19  1  0.67931350  0.79848450  0.50000000  1
  C  C20  1  0.67053800  0.20403300  0.00000000  1
  C  C21  1  0.67931350  0.20151550  0.50000000  1
  C  C22  1  0.74103700  0.50000000  0.24974700  1
  C  C23  1  0.74103700  0.50000000  0.75025300  1
  C  C24  1  0.17053800  0.29596700  0.00000000  1
  C  C25  1  0.17931350  0.29848450  0.50000000  1
  C  C26  1  0.17053800  0.70403300  0.00000000  1
  C  C27  1  0.17931350  0.70151550  0.50000000  1
  O  O28  1  0.05737800  0.00000000  0.25047500  1
  O  O29  1  0.05737800  0.00000000  0.74952500  1
  O  O30  1  0.58123850  0.68458950  0.00000000  1
  O  O31  1  0.58950350  0.68775150  0.50000000  1
  O  O32  1  0.58123850  0.31541050  0.00000000  1
  O  O33  1  0.58950350  0.31224850  0.50000000  1
  O  O34  1  0.33968950  0.88833850  0.24948600  1
  O  O35  1  0.33968950  0.88833850  0.75051400  1
  O  O36  1  0.33968950  0.11166150  0.24948600  1
  O  O37  1  0.33968950  0.11166150  0.75051400  1
  O  O38  1  0.72314050  0.85812150  0.10971900  1
  O  O39  1  0.73281600  0.86046200  0.60988400  1
  O  O40  1  0.72314050  0.14187850  0.10971900  1
  O  O41  1  0.73281600  0.13953800  0.60988400  1
  O  O42  1  0.73281600  0.86046200  0.39011600  1
  O  O43  1  0.72314050  0.85812150  0.89028100  1
  O  O44  1  0.73281600  0.13953800  0.39011600  1
  O  O45  1  0.72314050  0.14187850  0.89028100  1
  O  O46  1  0.55737800  0.50000000  0.25047500  1
  O  O47  1  0.55737800  0.50000000  0.74952500  1
  O  O48  1  0.08123850  0.18458950  0.00000000  1
  O  O49  1  0.08950350  0.18775150  0.50000000  1
  O  O50  1  0.08123850  0.81541050  0.00000000  1
  O  O51  1  0.08950350  0.81224850  0.50000000  1
  O  O52  1  0.83968950  0.38833850  0.24948600  1
  O  O53  1  0.83968950  0.38833850  0.75051400  1
  O  O54  1  0.83968950  0.61166150  0.24948600  1
  O  O55  1  0.83968950  0.61166150  0.75051400  1
  O  O56  1  0.22314050  0.35812150  0.10971900  1
  O  O57  1  0.23281600  0.36046200  0.60988400  1
  O  O58  1  0.22314050  0.64187850  0.10971900  1
  O  O59  1  0.23281600  0.63953800  0.60988400  1
  O  O60  1  0.23281600  0.36046200  0.39011600  1
  O  O61  1  0.22314050  0.35812150  0.89028100  1
  O  O62  1  0.23281600  0.63953800  0.39011600  1
  O  O63  1  0.22314050  0.64187850  0.89028100  1
