# generated using pymatgen
data_Li4Co3(OF3)2
_symmetry_space_group_name_H-M   'P 1'
_cell_length_a   5.22450506
_cell_length_b   5.26384155
_cell_length_c   5.94325295
_cell_angle_alpha   107.83347633
_cell_angle_beta   89.02161269
_cell_angle_gamma   99.94134629
_symmetry_Int_Tables_number   1
_chemical_formula_structural   Li4Co3(OF3)2
_chemical_formula_sum   'Li4 Co3 O2 F6'
_cell_volume   153.14383256
_cell_formula_units_Z   1
loop_
 _symmetry_equiv_pos_site_id
 _symmetry_equiv_pos_as_xyz
  1  'x, y, z'
loop_
 _atom_site_type_symbol
 _atom_site_label
 _atom_site_symmetry_multiplicity
 _atom_site_fract_x
 _atom_site_fract_y
 _atom_site_fract_z
 _atom_site_occupancy
  Li  Li0  1  0.26244900  0.97978700  0.37319125  1
  Li  Li1  1  0.73755100  0.02021300  0.62680875  1
  Li  Li2  1  0.76698200  0.00114650  0.13899125  1
  Li  Li3  1  0.23301800  0.99885350  0.86100875  1
  Co  Co4  1  0.00000000  0.50000000  0.50000000  1
  Co  Co5  1  0.50348300  0.49454000  0.26620825  1
  Co  Co6  1  0.49651700  0.50546000  0.73379175  1
  O  O7  1  0.64778600  0.27157400  0.44285875  1
  O  O8  1  0.35221400  0.72842600  0.55714125  1
  F  F9  1  0.13822800  0.20872550  0.19135925  1
  F  F10  1  0.86177200  0.79127450  0.80864075  1
  F  F11  1  0.86875200  0.76689350  0.32895975  1
  F  F12  1  0.13124800  0.23310650  0.67104025  1
  F  F13  1  0.41491200  0.74925300  0.06834825  1
  F  F14  1  0.58508800  0.25074700  0.93165175  1
