# generated using pymatgen
data_CaH4Se2O7
_symmetry_space_group_name_H-M   'P 1'
_cell_length_a   6.86118500
_cell_length_b   7.03353185
_cell_length_c   7.45717445
_cell_angle_alpha   71.70687659
_cell_angle_beta   89.04475134
_cell_angle_gamma   88.39895474
_symmetry_Int_Tables_number   1
_chemical_formula_structural   CaH4Se2O7
_chemical_formula_sum   'Ca2 H8 Se4 O14'
_cell_volume   341.53905801
_cell_formula_units_Z   2
loop_
 _symmetry_equiv_pos_site_id
 _symmetry_equiv_pos_as_xyz
  1  'x, y, z'
loop_
 _atom_site_type_symbol
 _atom_site_label
 _atom_site_symmetry_multiplicity
 _atom_site_fract_x
 _atom_site_fract_y
 _atom_site_fract_z
 _atom_site_occupancy
  Ca  Ca0  1  0.12549500  0.77107600  0.92512700  1
  Ca  Ca1  1  0.87450500  0.22892400  0.07487300  1
  H  H2  1  0.53050700  0.76031400  0.73506700  1
  H  H3  1  0.46949300  0.23968600  0.26493300  1
  H  H4  1  0.01637200  0.54548100  0.65503700  1
  H  H5  1  0.98362800  0.45451900  0.34496300  1
  H  H6  1  0.69886100  0.79156600  0.47946600  1
  H  H7  1  0.30113900  0.20843400  0.52053400  1
  H  H8  1  0.65391200  0.57243600  0.60144200  1
  H  H9  1  0.34608800  0.42756400  0.39855800  1
  Se  Se10  1  0.65923400  0.74979200  0.03841700  1
  Se  Se11  1  0.34076600  0.25020800  0.96158300  1
  Se  Se12  1  0.13085900  0.82061100  0.39645100  1
  Se  Se13  1  0.86914100  0.17938900  0.60354900  1
  O  O14  1  0.79703100  0.95752400  0.95420300  1
  O  O15  1  0.20296900  0.04247600  0.04579700  1
  O  O16  1  0.81497000  0.58619600  0.98365300  1
  O  O17  1  0.18503000  0.41380400  0.01634700  1
  O  O18  1  0.47435000  0.78726100  0.85625400  1
  O  O19  1  0.52565000  0.21273900  0.14374600  1
  O  O20  1  0.10146000  0.08213300  0.64522800  1
  O  O21  1  0.89854000  0.91786700  0.35477200  1
  O  O22  1  0.14069700  0.63823800  0.28616100  1
  O  O23  1  0.85930300  0.36176200  0.71383900  1
  O  O24  1  0.10992400  0.65911000  0.64092300  1
  O  O25  1  0.89007600  0.34089000  0.35907700  1
  O  O26  1  0.59230000  0.70811200  0.55458100  1
  O  O27  1  0.40770000  0.29188800  0.44541900  1
