# generated using pymatgen
data_Zr2N2O
_symmetry_space_group_name_H-M   'P 1'
_cell_length_a   8.86812700
_cell_length_b   8.86758851
_cell_length_c   8.87402010
_cell_angle_alpha   109.27734241
_cell_angle_beta   109.43892965
_cell_angle_gamma   109.54039218
_symmetry_Int_Tables_number   1
_chemical_formula_structural   Zr2N2O
_chemical_formula_sum   'Zr16 N16 O8'
_cell_volume   538.23611363
_cell_formula_units_Z   8
loop_
 _symmetry_equiv_pos_site_id
 _symmetry_equiv_pos_as_xyz
  1  'x, y, z'
loop_
 _atom_site_type_symbol
 _atom_site_label
 _atom_site_symmetry_multiplicity
 _atom_site_fract_x
 _atom_site_fract_y
 _atom_site_fract_z
 _atom_site_occupancy
  Zr  Zr0  1  0.96761100  0.75017500  0.71418100  1
  Zr  Zr1  1  0.50036200  0.50046300  0.49817300  1
  Zr  Zr2  1  0.77914900  0.52799000  0.24751700  1
  Zr  Zr3  1  0.71826300  0.96949300  0.74935300  1
  Zr  Zr4  1  0.25035200  0.21078200  0.96129300  1
  Zr  Zr5  1  0.25226700  0.70434000  0.46522700  1
  Zr  Zr6  1  0.98618700  0.00062600  0.49908000  1
  Zr  Zr7  1  0.54154900  0.25165200  0.78444900  1
  Zr  Zr8  1  0.47018300  0.74756400  0.21358800  1
  Zr  Zr9  1  0.00299300  0.48950400  0.99368300  1
  Zr  Zr10  1  0.74221200  0.78942200  0.03500100  1
  Zr  Zr11  1  0.74846400  0.28899900  0.53657900  1
  Zr  Zr12  1  0.21033700  0.46774400  0.75185300  1
  Zr  Zr13  1  0.29286600  0.03467600  0.25095700  1
  Zr  Zr14  1  0.50262300  0.00286400  0.01144000  1
  Zr  Zr15  1  0.03076100  0.25559500  0.29012200  1
  N  N16  1  0.72988900  0.49518600  0.45687800  1
  N  N17  1  0.53354200  0.27415400  0.03888300  1
  N  N18  1  0.96284700  0.00660300  0.73347600  1
  N  N19  1  0.50997500  0.74080300  0.46819000  1
  N  N20  1  0.98969900  0.46050600  0.23077500  1
  N  N21  1  0.22823500  0.95696500  0.97026300  1
  N  N22  1  0.48421000  0.26319100  0.53509800  1
  N  N23  1  0.01381300  0.54768500  0.77631600  1
  N  N24  1  0.73248400  0.76198000  0.27068200  1
  N  N25  1  0.46736800  0.72679700  0.95164600  1
  N  N26  1  0.77042300  0.22929000  0.76670100  1
  N  N27  1  0.23732000  0.46237400  0.01341100  1
  N  N28  1  0.95393900  0.22377900  0.48693400  1
  N  N29  1  0.54445200  0.03232000  0.27264300  1
  N  N30  1  0.27436900  0.51134200  0.54493100  1
  N  N31  1  0.77457200  0.04230700  0.03074700  1
  O  O32  1  0.44805100  0.96634300  0.72326700  1
  O  O33  1  0.05529800  0.78062100  0.51843700  1
  O  O34  1  0.03991900  0.99088700  0.26540500  1
  O  O35  1  0.26280500  0.27131400  0.22834800  1
  O  O36  1  0.22317400  0.77387900  0.23608900  1
  O  O37  1  0.76111800  0.53700300  0.98167100  1
  O  O38  1  0.73775500  0.72128500  0.77209400  1
  O  O39  1  0.26856700  0.23149500  0.72461700  1
