# generated using pymatgen
data_Er2GeO5
_symmetry_space_group_name_H-M   'P 1'
_cell_length_a   6.73355500
_cell_length_b   7.00448600
_cell_length_c   9.23742114
_cell_angle_alpha   90.00000000
_cell_angle_beta   104.50855596
_cell_angle_gamma   90.00000000
_symmetry_Int_Tables_number   1
_chemical_formula_structural   Er2GeO5
_chemical_formula_sum   'Er8 Ge4 O20'
_cell_volume   421.78996324
_cell_formula_units_Z   4
loop_
 _symmetry_equiv_pos_site_id
 _symmetry_equiv_pos_as_xyz
  1  'x, y, z'
loop_
 _atom_site_type_symbol
 _atom_site_label
 _atom_site_symmetry_multiplicity
 _atom_site_fract_x
 _atom_site_fract_y
 _atom_site_fract_z
 _atom_site_occupancy
  Er  Er0  1  0.45780200  0.36397800  0.13561400  1
  Er  Er1  1  0.95780200  0.13602200  0.13561400  1
  Er  Er2  1  0.27087800  0.37227700  0.47227200  1
  Er  Er3  1  0.22912200  0.87227700  0.52772800  1
  Er  Er4  1  0.77087800  0.12772300  0.47227200  1
  Er  Er5  1  0.72912200  0.62772300  0.52772800  1
  Er  Er6  1  0.04219800  0.86397800  0.86438600  1
  Er  Er7  1  0.54219800  0.63602200  0.86438600  1
  Ge  Ge8  1  0.47378900  0.90713100  0.19810900  1
  Ge  Ge9  1  0.97378900  0.59286900  0.19810900  1
  Ge  Ge10  1  0.02621100  0.40713100  0.80189100  1
  Ge  Ge11  1  0.52621100  0.09286900  0.80189100  1
  O  O12  1  0.01013300  0.80180500  0.10811600  1
  O  O13  1  0.27844200  0.06527400  0.10650200  1
  O  O14  1  0.17353500  0.41311600  0.21678600  1
  O  O15  1  0.51013300  0.69819500  0.10811600  1
  O  O16  1  0.00880600  0.63749200  0.39470100  1
  O  O17  1  0.06943100  0.11470100  0.38963100  1
  O  O18  1  0.77844200  0.43472600  0.10650200  1
  O  O19  1  0.67353500  0.08688400  0.21678600  1
  O  O20  1  0.50880600  0.86250800  0.39470100  1
  O  O21  1  0.56943100  0.38529900  0.38963100  1
  O  O22  1  0.43056900  0.61470100  0.61036900  1
  O  O23  1  0.49119400  0.13749200  0.60529900  1
  O  O24  1  0.32646500  0.91311600  0.78321400  1
  O  O25  1  0.22155800  0.56527400  0.89349800  1
  O  O26  1  0.93056900  0.88529900  0.61036900  1
  O  O27  1  0.99119400  0.36250800  0.60529900  1
  O  O28  1  0.48986700  0.30180500  0.89188400  1
  O  O29  1  0.82646500  0.58688400  0.78321400  1
  O  O30  1  0.72155800  0.93472600  0.89349800  1
  O  O31  1  0.98986700  0.19819500  0.89188400  1
