# generated using pymatgen
data_NdBiO4
_symmetry_space_group_name_H-M   'P 1'
_cell_length_a   7.44785400
_cell_length_b   11.52857600
_cell_length_c   5.38568142
_cell_angle_alpha   90.00000000
_cell_angle_beta   130.20174839
_cell_angle_gamma   90.00000000
_symmetry_Int_Tables_number   1
_chemical_formula_structural   NdBiO4
_chemical_formula_sum   'Nd4 Bi4 O16'
_cell_volume   353.19429315
_cell_formula_units_Z   4
loop_
 _symmetry_equiv_pos_site_id
 _symmetry_equiv_pos_as_xyz
  1  'x, y, z'
loop_
 _atom_site_type_symbol
 _atom_site_label
 _atom_site_symmetry_multiplicity
 _atom_site_fract_x
 _atom_site_fract_y
 _atom_site_fract_z
 _atom_site_occupancy
  Nd  Nd0  1  0.00000000  0.13655500  0.75000000  1
  Nd  Nd1  1  0.50000000  0.36344500  0.25000000  1
  Nd  Nd2  1  0.50000000  0.63655500  0.75000000  1
  Nd  Nd3  1  0.00000000  0.86344500  0.25000000  1
  Bi  Bi4  1  0.50000000  0.09960900  0.75000000  1
  Bi  Bi5  1  0.00000000  0.40039100  0.25000000  1
  Bi  Bi6  1  0.00000000  0.59960900  0.75000000  1
  Bi  Bi7  1  0.50000000  0.90039100  0.25000000  1
  O  O8  1  0.33223500  0.21589700  0.83364300  1
  O  O9  1  0.83223500  0.28410300  0.33364300  1
  O  O10  1  0.75949450  0.47280850  0.77114800  1
  O  O11  1  0.25949450  0.02719150  0.27114800  1
  O  O12  1  0.24050550  0.47280850  0.72885200  1
  O  O13  1  0.74050550  0.02719150  0.22885200  1
  O  O14  1  0.66776500  0.21589700  0.66635700  1
  O  O15  1  0.16776500  0.28410300  0.16635700  1
  O  O16  1  0.83223500  0.71589700  0.83364300  1
  O  O17  1  0.33223500  0.78410300  0.33364300  1
  O  O18  1  0.25949450  0.97280850  0.77114800  1
  O  O19  1  0.75949450  0.52719150  0.27114800  1
  O  O20  1  0.74050550  0.97280850  0.72885200  1
  O  O21  1  0.24050550  0.52719150  0.22885200  1
  O  O22  1  0.16776500  0.71589700  0.66635700  1
  O  O23  1  0.66776500  0.78410300  0.16635700  1
