# generated using pymatgen
data_Li7Ti7Nb5O30
_symmetry_space_group_name_H-M   'P 1'
_cell_length_a   5.16642809
_cell_length_b   5.16642809
_cell_length_c   23.82624200
_cell_angle_alpha   90.00000000
_cell_angle_beta   90.00000000
_cell_angle_gamma   120.00000000
_symmetry_Int_Tables_number   1
_chemical_formula_structural   Li7Ti7Nb5O30
_chemical_formula_sum   'Li7 Ti7 Nb5 O30'
_cell_volume   550.76579184
_cell_formula_units_Z   1
loop_
 _symmetry_equiv_pos_site_id
 _symmetry_equiv_pos_as_xyz
  1  'x, y, z'
loop_
 _atom_site_type_symbol
 _atom_site_label
 _atom_site_symmetry_multiplicity
 _atom_site_fract_x
 _atom_site_fract_y
 _atom_site_fract_z
 _atom_site_occupancy
  Li  Li0  1  0.00000000  0.00000000  0.27487500  1
  Li  Li1  1  0.66666667  0.33333333  0.08050300  1
  Li  Li2  1  0.66666667  0.33333333  0.37344400  1
  Li  Li3  1  0.66666667  0.33333333  0.62805500  1
  Li  Li4  1  0.66666667  0.33333333  0.92318900  1
  Li  Li5  1  0.00000000  0.00000000  0.52916600  1
  Li  Li6  1  0.33333333  0.66666667  0.20271700  1
  Ti  Ti7  1  0.00000000  0.00000000  0.88573400  1
  Ti  Ti8  1  0.00000000  0.00000000  0.01141700  1
  Ti  Ti9  1  0.00000000  0.00000000  0.69108500  1
  Ti  Ti10  1  0.33333333  0.66666667  0.59012300  1
  Ti  Ti11  1  0.33333333  0.66666667  0.71398100  1
  Ti  Ti12  1  0.33333333  0.66666667  0.98145100  1
  Ti  Ti13  1  0.33333333  0.66666667  0.10453200  1
  Nb  Nb14  1  0.00000000  0.00000000  0.40436300  1
  Nb  Nb15  1  0.66666667  0.33333333  0.20290200  1
  Nb  Nb16  1  0.66666667  0.33333333  0.50187000  1
  Nb  Nb17  1  0.66666667  0.33333333  0.79939600  1
  Nb  Nb18  1  0.33333333  0.66666667  0.30862100  1
  O  O19  1  0.58807600  0.00101800  0.14832000  1
  O  O20  1  0.67593200  0.97207800  0.35142600  1
  O  O21  1  0.67102400  0.00491900  0.74511500  1
  O  O22  1  0.93967500  0.27341500  0.45273100  1
  O  O23  1  0.64510600  0.69831100  0.04390000  1
  O  O24  1  0.05320500  0.35489400  0.04390000  1
  O  O25  1  0.72658500  0.66626000  0.45273100  1
  O  O26  1  0.99508100  0.66610500  0.74511500  1
  O  O27  1  0.29614600  0.32406800  0.35142600  1
  O  O28  1  0.99898200  0.58705800  0.14832000  1
  O  O29  1  0.33389500  0.32897600  0.74511500  1
  O  O30  1  0.02792200  0.70385400  0.35142600  1
  O  O31  1  0.99551200  0.62803200  0.55378200  1
  O  O32  1  0.41294200  0.41192400  0.14832000  1
  O  O33  1  0.03303500  0.72235600  0.94870900  1
  O  O34  1  0.30168900  0.94679500  0.04390000  1
  O  O35  1  0.93757200  0.27797100  0.84724700  1
  O  O36  1  0.33374000  0.06032500  0.45273100  1
  O  O37  1  0.28661500  0.93624300  0.65360400  1
  O  O38  1  0.00642400  0.37851100  0.25257400  1
  O  O39  1  0.34039900  0.06242800  0.84724700  1
  O  O40  1  0.06375700  0.35037200  0.65360400  1
  O  O41  1  0.37208700  0.99357600  0.25257400  1
  O  O42  1  0.63252000  0.00448800  0.55378200  1
  O  O43  1  0.27764400  0.31067900  0.94870900  1
  O  O44  1  0.68932100  0.96696500  0.94870900  1
  O  O45  1  0.37196800  0.36748000  0.55378200  1
  O  O46  1  0.62148900  0.62791300  0.25257400  1
  O  O47  1  0.64962800  0.71338500  0.65360400  1
  O  O48  1  0.72202900  0.65960100  0.84724700  1
