# generated using pymatgen
data_Li4V3CoO8
_symmetry_space_group_name_H-M   'P 1'
_cell_length_a   10.33052200
_cell_length_b   5.94951800
_cell_length_c   5.96756227
_cell_angle_alpha   90.00000000
_cell_angle_beta   125.08733101
_cell_angle_gamma   90.00000000
_symmetry_Int_Tables_number   1
_chemical_formula_structural   Li4V3CoO8
_chemical_formula_sum   'Li8 V6 Co2 O16'
_cell_volume   300.12437510
_cell_formula_units_Z   2
loop_
 _symmetry_equiv_pos_site_id
 _symmetry_equiv_pos_as_xyz
  1  'x, y, z'
loop_
 _atom_site_type_symbol
 _atom_site_label
 _atom_site_symmetry_multiplicity
 _atom_site_fract_x
 _atom_site_fract_y
 _atom_site_fract_z
 _atom_site_occupancy
  Li  Li0  1  0.00000000  0.50000000  0.50000000  1
  Li  Li1  1  0.25000000  0.75000000  0.50000000  1
  Li  Li2  1  0.00000000  0.00000000  0.50000000  1
  Li  Li3  1  0.25000000  0.25000000  0.50000000  1
  Li  Li4  1  0.50000000  0.00000000  0.50000000  1
  Li  Li5  1  0.75000000  0.25000000  0.50000000  1
  Li  Li6  1  0.50000000  0.50000000  0.50000000  1
  Li  Li7  1  0.75000000  0.75000000  0.50000000  1
  V  V8  1  0.25000000  0.25000000  0.00000000  1
  V  V9  1  0.00000000  0.50000000  0.00000000  1
  V  V10  1  0.25000000  0.75000000  0.00000000  1
  V  V11  1  0.75000000  0.75000000  0.00000000  1
  V  V12  1  0.50000000  0.00000000  0.00000000  1
  V  V13  1  0.75000000  0.25000000  0.00000000  1
  Co  Co14  1  0.00000000  0.00000000  0.00000000  1
  Co  Co15  1  0.50000000  0.50000000  0.00000000  1
  O  O16  1  0.26002200  0.00000000  0.76654200  1
  O  O17  1  0.00596000  0.73289000  0.77060000  1
  O  O18  1  0.25363700  0.50000000  0.77471400  1
  O  O19  1  0.23997800  0.50000000  0.23345800  1
  O  O20  1  0.00596000  0.26711000  0.77060000  1
  O  O21  1  0.49404000  0.76711000  0.22940000  1
  O  O22  1  0.24636300  0.00000000  0.22528600  1
  O  O23  1  0.49404000  0.23289000  0.22940000  1
  O  O24  1  0.76002200  0.50000000  0.76654200  1
  O  O25  1  0.50596000  0.23289000  0.77060000  1
  O  O26  1  0.75363700  0.00000000  0.77471400  1
  O  O27  1  0.73997800  0.00000000  0.23345800  1
  O  O28  1  0.50596000  0.76711000  0.77060000  1
  O  O29  1  0.99404000  0.26711000  0.22940000  1
  O  O30  1  0.74636300  0.50000000  0.22528600  1
  O  O31  1  0.99404000  0.73289000  0.22940000  1
