# generated using pymatgen
data_Li3Fe4(BO3)4
_symmetry_space_group_name_H-M   'P 1'
_cell_length_a   5.23778212
_cell_length_b   9.03743456
_cell_length_c   11.46157128
_cell_angle_alpha   113.02474663
_cell_angle_beta   101.99519673
_cell_angle_gamma   89.38977576
_symmetry_Int_Tables_number   1
_chemical_formula_structural   Li3Fe4(BO3)4
_chemical_formula_sum   'Li6 Fe8 B8 O24'
_cell_volume   486.91619776
_cell_formula_units_Z   2
loop_
 _symmetry_equiv_pos_site_id
 _symmetry_equiv_pos_as_xyz
  1  'x, y, z'
loop_
 _atom_site_type_symbol
 _atom_site_label
 _atom_site_symmetry_multiplicity
 _atom_site_fract_x
 _atom_site_fract_y
 _atom_site_fract_z
 _atom_site_occupancy
  Li  Li0  1  0.82979200  0.17368300  0.33368300  1
  Li  Li1  1  0.64154000  0.30680600  0.59886100  1
  Li  Li2  1  0.39015800  0.03777200  0.08763300  1
  Li  Li3  1  0.08200900  0.41124800  0.83694800  1
  Li  Li4  1  0.31822800  0.67754300  0.33133400  1
  Li  Li5  1  0.57840500  0.89953700  0.83430200  1
  Fe  Fe6  1  0.60023500  0.60082200  0.87461500  1
  Fe  Fe7  1  0.90939500  0.87942900  0.11820500  1
  Fe  Fe8  1  0.16029400  0.48604500  0.62208200  1
  Fe  Fe9  1  0.34019200  0.02677000  0.37185500  1
  Fe  Fe10  1  0.65085200  0.97532200  0.62177500  1
  Fe  Fe11  1  0.84459400  0.51741800  0.36318700  1
  Fe  Fe12  1  0.09141200  0.09285200  0.87043700  1
  Fe  Fe13  1  0.39326200  0.39694300  0.11044000  1
  B  B14  1  0.35996800  0.35852900  0.37365200  1
  B  B15  1  0.10552900  0.76653700  0.87298300  1
  B  B16  1  0.84812800  0.85374500  0.37792400  1
  B  B17  1  0.59201100  0.26053900  0.86081400  1
  B  B18  1  0.14256500  0.14725600  0.62363300  1
  B  B19  1  0.40499500  0.73753000  0.12579000  1
  B  B20  1  0.65747800  0.63968600  0.61821100  1
  B  B21  1  0.90156600  0.22798100  0.13029200  1
  O  O22  1  0.86157900  0.78607500  0.90219000  1
  O  O23  1  0.55524600  0.53148900  0.65910700  1
  O  O24  1  0.76983000  0.10276200  0.13862000  1
  O  O25  1  0.50702400  0.23725400  0.38885400  1
  O  O26  1  0.10898000  0.36968700  0.39938200  1
  O  O27  1  0.20041300  0.61377500  0.83042400  1
  O  O28  1  0.73395800  0.38095300  0.85354200  1
  O  O29  1  0.94490000  0.96982700  0.34435600  1
  O  O30  1  0.30506200  0.89216700  0.16526800  1
  O  O31  1  0.38620000  0.12085900  0.58807700  1
  O  O32  1  0.02210600  0.28504200  0.63050300  1
  O  O33  1  0.61577900  0.71623900  0.06789400  1
  O  O34  1  0.35691300  0.28464700  0.90199400  1
  O  O35  1  0.61054200  0.87451300  0.42154200  1
  O  O36  1  0.68226700  0.10294800  0.82309600  1
  O  O37  1  0.02377400  0.03571100  0.65510500  1
  O  O38  1  0.29450500  0.61901600  0.14813400  1
  O  O39  1  0.79965100  0.38010700  0.17203500  1
  O  O40  1  0.86229200  0.59945700  0.55508800  1
  O  O41  1  0.55564400  0.78737600  0.64410000  1
  O  O42  1  0.97445500  0.71699800  0.36590400  1
  O  O43  1  0.25900100  0.90131800  0.89067100  1
  O  O44  1  0.45681200  0.47322800  0.33757800  1
  O  O45  1  0.13145900  0.20784800  0.08445000  1
