# generated using pymatgen
data_Li3Bi3(PO4)4
_symmetry_space_group_name_H-M   'P 1'
_cell_length_a   17.98652800
_cell_length_b   6.74593800
_cell_length_c   10.98688283
_cell_angle_alpha   90.00000000
_cell_angle_beta   92.40987586
_cell_angle_gamma   90.00000000
_symmetry_Int_Tables_number   1
_chemical_formula_structural   Li3Bi3(PO4)4
_chemical_formula_sum   'Li12 Bi12 P16 O64'
_cell_volume   1331.92544367
_cell_formula_units_Z   4
loop_
 _symmetry_equiv_pos_site_id
 _symmetry_equiv_pos_as_xyz
  1  'x, y, z'
loop_
 _atom_site_type_symbol
 _atom_site_label
 _atom_site_symmetry_multiplicity
 _atom_site_fract_x
 _atom_site_fract_y
 _atom_site_fract_z
 _atom_site_occupancy
  Li  Li0  1  0.65578000  0.08429400  0.26203100  1
  Li  Li1  1  0.65578000  0.91570600  0.76203100  1
  Li  Li2  1  0.75000000  0.25000000  0.50000000  1
  Li  Li3  1  0.75000000  0.75000000  0.00000000  1
  Li  Li4  1  0.84422000  0.58429400  0.23796900  1
  Li  Li5  1  0.84422000  0.41570600  0.73796900  1
  Li  Li6  1  0.15578000  0.58429400  0.26203100  1
  Li  Li7  1  0.15578000  0.41570600  0.76203100  1
  Li  Li8  1  0.25000000  0.75000000  0.50000000  1
  Li  Li9  1  0.25000000  0.25000000  0.00000000  1
  Li  Li10  1  0.34422000  0.08429400  0.23796900  1
  Li  Li11  1  0.34422000  0.91570600  0.73796900  1
  Bi  Bi12  1  0.63909200  0.31631000  0.00920800  1
  Bi  Bi13  1  0.63909200  0.68369000  0.50920800  1
  Bi  Bi14  1  0.86090800  0.81631000  0.49079200  1
  Bi  Bi15  1  0.86090800  0.18369000  0.99079200  1
  Bi  Bi16  1  0.00000000  0.35628400  0.25000000  1
  Bi  Bi17  1  0.00000000  0.64371600  0.75000000  1
  Bi  Bi18  1  0.13909200  0.81631000  0.00920800  1
  Bi  Bi19  1  0.13909200  0.18369000  0.50920800  1
  Bi  Bi20  1  0.36090800  0.31631000  0.49079200  1
  Bi  Bi21  1  0.36090800  0.68369000  0.99079200  1
  Bi  Bi22  1  0.50000000  0.85628400  0.25000000  1
  Bi  Bi23  1  0.50000000  0.14371600  0.75000000  1
  P  P24  1  0.56619000  0.80989900  0.99369500  1
  P  P25  1  0.56619000  0.19010100  0.49369500  1
  P  P26  1  0.69147250  0.55708650  0.25814900  1
  P  P27  1  0.69147250  0.44291350  0.75814900  1
  P  P28  1  0.80852750  0.05708650  0.24185100  1
  P  P29  1  0.80852750  0.94291350  0.74185100  1
  P  P30  1  0.93381000  0.30989900  0.50630500  1
  P  P31  1  0.93381000  0.69010100  0.00630500  1
  P  P32  1  0.06619000  0.30989900  0.99369500  1
  P  P33  1  0.06619000  0.69010100  0.49369500  1
  P  P34  1  0.19147250  0.05708650  0.25814900  1
  P  P35  1  0.19147250  0.94291350  0.75814900  1
  P  P36  1  0.30852750  0.55708650  0.24185100  1
  P  P37  1  0.30852750  0.44291350  0.74185100  1
  P  P38  1  0.43381000  0.80989900  0.50630500  1
  P  P39  1  0.43381000  0.19010100  0.00630500  1
  O  O40  1  0.99090400  0.21550900  0.03141200  1
  O  O41  1  0.99090400  0.78449100  0.53141200  1
  O  O42  1  0.56617950  0.09043950  0.36617100  1
  O  O43  1  0.58737650  0.96797450  0.09438900  1
  O  O44  1  0.56617950  0.90956050  0.86617100  1
  O  O45  1  0.58737650  0.03202550  0.59438900  1
  O  O46  1  0.62553250  0.64426650  0.99446200  1
  O  O47  1  0.63082450  0.72019850  0.28622500  1
  O  O48  1  0.62553250  0.35573350  0.49446200  1
  O  O49  1  0.64655000  0.36676800  0.21835900  1
  O  O50  1  0.63082450  0.27980150  0.78622500  1
  O  O51  1  0.64655000  0.63323200  0.71835900  1
  O  O52  1  0.76340250  0.04227750  0.11554700  1
  O  O53  1  0.75397900  0.10120000  0.34193900  1
  O  O54  1  0.76340250  0.95772250  0.61554700  1
  O  O55  1  0.75397900  0.89880000  0.84193900  1
  O  O56  1  0.74602100  0.60120000  0.15806100  1
  O  O57  1  0.73659750  0.54227750  0.38445300  1
  O  O58  1  0.74602100  0.39880000  0.65806100  1
  O  O59  1  0.73659750  0.45772250  0.88445300  1
  O  O60  1  0.85345000  0.86676800  0.28164100  1
  O  O61  1  0.86917550  0.22019850  0.21377500  1
  O  O62  1  0.85345000  0.13323200  0.78164100  1
  O  O63  1  0.87446750  0.14426650  0.50553800  1
  O  O64  1  0.86917550  0.77980150  0.71377500  1
  O  O65  1  0.87446750  0.85573350  0.00553800  1
  O  O66  1  0.91262350  0.46797450  0.40561100  1
  O  O67  1  0.93382050  0.59043950  0.13382900  1
  O  O68  1  0.91262350  0.53202550  0.90561100  1
  O  O69  1  0.93382050  0.40956050  0.63382900  1
  O  O70  1  0.50909600  0.71550900  0.46858800  1
  O  O71  1  0.50909600  0.28449100  0.96858800  1
  O  O72  1  0.49090400  0.71550900  0.03141200  1
  O  O73  1  0.49090400  0.28449100  0.53141200  1
  O  O74  1  0.06617950  0.59043950  0.36617100  1
  O  O75  1  0.08737650  0.46797450  0.09438900  1
  O  O76  1  0.06617950  0.40956050  0.86617100  1
  O  O77  1  0.08737650  0.53202550  0.59438900  1
  O  O78  1  0.12553250  0.14426650  0.99446200  1
  O  O79  1  0.13082450  0.22019850  0.28622500  1
  O  O80  1  0.12553250  0.85573350  0.49446200  1
  O  O81  1  0.14655000  0.86676800  0.21835900  1
  O  O82  1  0.13082450  0.77980150  0.78622500  1
  O  O83  1  0.14655000  0.13323200  0.71835900  1
  O  O84  1  0.26340250  0.54227750  0.11554700  1
  O  O85  1  0.25397900  0.60120000  0.34193900  1
  O  O86  1  0.26340250  0.45772250  0.61554700  1
  O  O87  1  0.25397900  0.39880000  0.84193900  1
  O  O88  1  0.24602100  0.10120000  0.15806100  1
  O  O89  1  0.23659750  0.04227750  0.38445300  1
  O  O90  1  0.24602100  0.89880000  0.65806100  1
  O  O91  1  0.23659750  0.95772250  0.88445300  1
  O  O92  1  0.35345000  0.36676800  0.28164100  1
  O  O93  1  0.36917550  0.72019850  0.21377500  1
  O  O94  1  0.35345000  0.63323200  0.78164100  1
  O  O95  1  0.37446750  0.64426650  0.50553800  1
  O  O96  1  0.36917550  0.27980150  0.71377500  1
  O  O97  1  0.37446750  0.35573350  0.00553800  1
  O  O98  1  0.41262350  0.96797450  0.40561100  1
  O  O99  1  0.43382050  0.09043950  0.13382900  1
  O  O100  1  0.41262350  0.03202550  0.90561100  1
  O  O101  1  0.43382050  0.90956050  0.63382900  1
  O  O102  1  0.00909600  0.21550900  0.46858800  1
  O  O103  1  0.00909600  0.78449100  0.96858800  1
