# generated using pymatgen
data_Fe2H13C6NCl2O11
_symmetry_space_group_name_H-M   'P 1'
_cell_length_a   9.35630600
_cell_length_b   15.13173600
_cell_length_c   12.64788142
_cell_angle_alpha   90.00000000
_cell_angle_beta   109.66354663
_cell_angle_gamma   90.00000000
_symmetry_Int_Tables_number   1
_chemical_formula_structural   Fe2H13C6NCl2O11
_chemical_formula_sum   'Fe8 H52 C24 N4 Cl8 O44'
_cell_volume   1686.22890575
_cell_formula_units_Z   4
loop_
 _symmetry_equiv_pos_site_id
 _symmetry_equiv_pos_as_xyz
  1  'x, y, z'
loop_
 _atom_site_type_symbol
 _atom_site_label
 _atom_site_symmetry_multiplicity
 _atom_site_fract_x
 _atom_site_fract_y
 _atom_site_fract_z
 _atom_site_occupancy
  Fe  Fe0  1  0.63023600  0.29334700  0.83459700  1
  Fe  Fe1  1  0.63023600  0.70665300  0.33459700  1
  Fe  Fe2  1  0.52441850  0.45275750  0.60811200  1
  Fe  Fe3  1  0.52441850  0.54724250  0.10811200  1
  Fe  Fe4  1  0.13023600  0.79334700  0.83459700  1
  Fe  Fe5  1  0.13023600  0.20665300  0.33459700  1
  Fe  Fe6  1  0.02441850  0.95275750  0.60811200  1
  Fe  Fe7  1  0.02441850  0.04724250  0.10811200  1
  H  H8  1  0.22881300  0.83636900  0.68053900  1
  H  H9  1  0.22881300  0.16363100  0.18053900  1
  H  H10  1  0.68286500  0.87576600  0.67306200  1
  H  H11  1  0.68286500  0.12423400  0.17306200  1
  H  H12  1  0.69920150  0.83988750  0.80088000  1
  H  H13  1  0.69920150  0.16011250  0.30088000  1
  H  H14  1  0.52955900  0.83354000  0.69754800  1
  H  H15  1  0.52955900  0.16646000  0.19754800  1
  H  H16  1  0.31211450  0.81201750  0.34718200  1
  H  H17  1  0.31211450  0.18798250  0.84718200  1
  H  H18  1  0.17429800  0.82930300  0.38889400  1
  H  H19  1  0.17429800  0.17069700  0.88889400  1
  H  H20  1  0.38526950  0.71363750  0.67208900  1
  H  H21  1  0.38526950  0.28636250  0.17208900  1
  H  H22  1  0.34282550  0.76724850  0.55548700  1
  H  H23  1  0.34282550  0.23275150  0.05548700  1
  H  H24  1  0.69225950  0.00311850  0.77987800  1
  H  H25  1  0.69225950  0.99688150  0.27987800  1
  H  H26  1  0.50450000  0.99024400  0.68240200  1
  H  H27  1  0.50450000  0.00975600  0.18240200  1
  H  H28  1  0.49922700  0.02835500  0.87392000  1
  H  H29  1  0.49922700  0.97164500  0.37392000  1
  H  H30  1  0.42026900  0.92239600  0.83196100  1
  H  H31  1  0.42026900  0.07760400  0.33196100  1
  H  H32  1  0.60869000  0.93280900  0.93117700  1
  H  H33  1  0.60869000  0.06719100  0.43117700  1
  H  H34  1  0.72881300  0.33636900  0.68053900  1
  H  H35  1  0.72881300  0.66363100  0.18053900  1
  H  H36  1  0.18286500  0.37576600  0.67306200  1
  H  H37  1  0.18286500  0.62423400  0.17306200  1
  H  H38  1  0.19920150  0.33988750  0.80088000  1
  H  H39  1  0.19920150  0.66011250  0.30088000  1
  H  H40  1  0.02955900  0.33354000  0.69754800  1
  H  H41  1  0.02955900  0.66646000  0.19754800  1
  H  H42  1  0.81211450  0.31201750  0.34718200  1
  H  H43  1  0.81211450  0.68798250  0.84718200  1
  H  H44  1  0.67429800  0.32930300  0.38889400  1
  H  H45  1  0.67429800  0.67069700  0.88889400  1
  H  H46  1  0.88526950  0.21363750  0.67208900  1
  H  H47  1  0.88526950  0.78636250  0.17208900  1
  H  H48  1  0.84282550  0.26724850  0.55548700  1
  H  H49  1  0.84282550  0.73275150  0.05548700  1
  H  H50  1  0.19225950  0.50311850  0.77987800  1
  H  H51  1  0.19225950  0.49688150  0.27987800  1
  H  H52  1  0.00450000  0.49024400  0.68240200  1
  H  H53  1  0.00450000  0.50975600  0.18240200  1
  H  H54  1  0.99922700  0.52835500  0.87392000  1
  H  H55  1  0.99922700  0.47164500  0.37392000  1
  H  H56  1  0.92026900  0.42239600  0.83196100  1
  H  H57  1  0.92026900  0.57760400  0.33196100  1
  H  H58  1  0.10869000  0.43280900  0.93117700  1
  H  H59  1  0.10869000  0.56719100  0.43117700  1
  C  C60  1  0.16639250  0.93485450  0.99345800  1
  C  C61  1  0.16639250  0.06514550  0.49345800  1
  C  C62  1  0.49493550  0.41790050  0.93908100  1
  C  C63  1  0.49493550  0.58209950  0.43908100  1
  C  C64  1  0.38446250  0.68159150  0.94062500  1
  C  C65  1  0.38446250  0.31840850  0.44062500  1
  C  C66  1  0.77589600  0.16722800  0.00716000  1
  C  C67  1  0.77589600  0.83277200  0.50716000  1
  C  C68  1  0.58821200  0.96362800  0.75914600  1
  C  C69  1  0.58821200  0.03637200  0.25914600  1
  C  C70  1  0.52560650  0.96080950  0.85500100  1
  C  C71  1  0.52560650  0.03919050  0.35500100  1
  C  C72  1  0.66639250  0.43485450  0.99345800  1
  C  C73  1  0.66639250  0.56514550  0.49345800  1
  C  C74  1  0.99493550  0.91790050  0.93908100  1
  C  C75  1  0.99493550  0.08209950  0.43908100  1
  C  C76  1  0.88446250  0.18159150  0.94062500  1
  C  C77  1  0.88446250  0.81840850  0.44062500  1
  C  C78  1  0.27589600  0.66722800  0.00716000  1
  C  C79  1  0.27589600  0.33277200  0.50716000  1
  C  C80  1  0.08821200  0.46362800  0.75914600  1
  C  C81  1  0.08821200  0.53637200  0.25914600  1
  C  C82  1  0.02560650  0.46080950  0.85500100  1
  C  C83  1  0.02560650  0.53919050  0.35500100  1
  N  N84  1  0.62747150  0.87254250  0.73139400  1
  N  N85  1  0.62747150  0.12745750  0.23139400  1
  N  N86  1  0.12747150  0.37254250  0.73139400  1
  N  N87  1  0.12747150  0.62745750  0.23139400  1
  Cl  Cl88  1  0.46517250  0.19207550  0.72579100  1
  Cl  Cl89  1  0.46517250  0.80792450  0.22579100  1
  Cl  Cl90  1  0.49953750  0.55568950  0.73157000  1
  Cl  Cl91  1  0.49953750  0.44431050  0.23157000  1
  Cl  Cl92  1  0.96517250  0.69207550  0.72579100  1
  Cl  Cl93  1  0.96517250  0.30792450  0.22579100  1
  Cl  Cl94  1  0.99953750  0.05568950  0.73157000  1
  Cl  Cl95  1  0.99953750  0.94431050  0.23157000  1
  O  O96  1  0.15694900  0.86594200  0.71183800  1
  O  O97  1  0.15694900  0.13405800  0.21183800  1
  O  O98  1  0.25268800  0.88956200  0.95691100  1
  O  O99  1  0.25268800  0.11043800  0.45691100  1
  O  O100  1  0.45520450  0.35940450  0.86228300  1
  O  O101  1  0.45520450  0.64059550  0.36228300  1
  O  O102  1  0.20477750  0.99319350  0.07047600  1
  O  O103  1  0.20477750  0.00680650  0.57047600  1
  O  O104  1  0.90600000  0.96228100  0.97404300  1
  O  O105  1  0.90600000  0.03771900  0.47404300  1
  O  O106  1  0.50816750  0.63986250  0.97267600  1
  O  O107  1  0.50816750  0.36013750  0.47267600  1
  O  O108  1  0.81594000  0.10962400  0.08555600  1
  O  O109  1  0.81594000  0.89037600  0.58555600  1
  O  O110  1  0.65585800  0.21226000  0.97927400  1
  O  O111  1  0.65585800  0.78774000  0.47927400  1
  O  O112  1  0.33858950  0.73452450  0.85776200  1
  O  O113  1  0.33858950  0.26547550  0.35776200  1
  O  O114  1  0.25632200  0.78749400  0.39390000  1
  O  O115  1  0.25632200  0.21250600  0.89390000  1
  O  O116  1  0.37055100  0.77264900  0.63805700  1
  O  O117  1  0.37055100  0.22735100  0.13805700  1
  O  O118  1  0.65694900  0.36594200  0.71183800  1
  O  O119  1  0.65694900  0.63405800  0.21183800  1
  O  O120  1  0.75268800  0.38956200  0.95691100  1
  O  O121  1  0.75268800  0.61043800  0.45691100  1
  O  O122  1  0.95520450  0.85940450  0.86228300  1
  O  O123  1  0.95520450  0.14059550  0.36228300  1
  O  O124  1  0.70477750  0.49319350  0.07047600  1
  O  O125  1  0.70477750  0.50680650  0.57047600  1
  O  O126  1  0.40600000  0.46228100  0.97404300  1
  O  O127  1  0.40600000  0.53771900  0.47404300  1
  O  O128  1  0.00816750  0.13986250  0.97267600  1
  O  O129  1  0.00816750  0.86013750  0.47267600  1
  O  O130  1  0.31594000  0.60962400  0.08555600  1
  O  O131  1  0.31594000  0.39037600  0.58555600  1
  O  O132  1  0.15585800  0.71226000  0.97927400  1
  O  O133  1  0.15585800  0.28774000  0.47927400  1
  O  O134  1  0.83858950  0.23452450  0.85776200  1
  O  O135  1  0.83858950  0.76547550  0.35776200  1
  O  O136  1  0.75632200  0.28749400  0.39390000  1
  O  O137  1  0.75632200  0.71250600  0.89390000  1
  O  O138  1  0.87055100  0.27264900  0.63805700  1
  O  O139  1  0.87055100  0.72735100  0.13805700  1
