# generated using pymatgen
data_Hg3(SF)2
_symmetry_space_group_name_H-M   'P 1'
_cell_length_a   8.40033000
_cell_length_b   8.40033000
_cell_length_c   8.40033000
_cell_angle_alpha   90.00000000
_cell_angle_beta   90.00000000
_cell_angle_gamma   90.00000000
_symmetry_Int_Tables_number   1
_chemical_formula_structural   Hg3(SF)2
_chemical_formula_sum   'Hg12 S8 F8'
_cell_volume   592.77385714
_cell_formula_units_Z   4
loop_
 _symmetry_equiv_pos_site_id
 _symmetry_equiv_pos_as_xyz
  1  'x, y, z'
loop_
 _atom_site_type_symbol
 _atom_site_label
 _atom_site_symmetry_multiplicity
 _atom_site_fract_x
 _atom_site_fract_y
 _atom_site_fract_z
 _atom_site_occupancy
  Hg  Hg0  1  0.00000000  0.75000000  0.16928100  1
  Hg  Hg1  1  0.33071900  0.00000000  0.25000000  1
  Hg  Hg2  1  0.25000000  0.33071900  0.00000000  1
  Hg  Hg3  1  0.16928100  0.00000000  0.75000000  1
  Hg  Hg4  1  0.75000000  0.16928100  0.00000000  1
  Hg  Hg5  1  0.00000000  0.25000000  0.33071900  1
  Hg  Hg6  1  0.50000000  0.25000000  0.66928100  1
  Hg  Hg7  1  0.83071900  0.50000000  0.75000000  1
  Hg  Hg8  1  0.75000000  0.83071900  0.50000000  1
  Hg  Hg9  1  0.66928100  0.50000000  0.25000000  1
  Hg  Hg10  1  0.25000000  0.66928100  0.50000000  1
  Hg  Hg11  1  0.50000000  0.75000000  0.83071900  1
  S  S12  1  0.21603000  0.71603000  0.78397000  1
  S  S13  1  0.71603000  0.78397000  0.21603000  1
  S  S14  1  0.28397000  0.28397000  0.28397000  1
  S  S15  1  0.78397000  0.21603000  0.71603000  1
  S  S16  1  0.71603000  0.21603000  0.28397000  1
  S  S17  1  0.21603000  0.28397000  0.71603000  1
  S  S18  1  0.78397000  0.78397000  0.78397000  1
  S  S19  1  0.28397000  0.71603000  0.21603000  1
  F  F20  1  0.98254850  0.48254850  0.01745150  1
  F  F21  1  0.48254850  0.01745150  0.98254850  1
  F  F22  1  0.01745150  0.98254850  0.48254850  1
  F  F23  1  0.01745150  0.01745150  0.01745150  1
  F  F24  1  0.48254850  0.98254850  0.51745150  1
  F  F25  1  0.98254850  0.51745150  0.48254850  1
  F  F26  1  0.51745150  0.48254850  0.98254850  1
  F  F27  1  0.51745150  0.51745150  0.51745150  1
