# generated using pymatgen
data_Cr2Fe3Co(PO4)6
_symmetry_space_group_name_H-M   'P 1'
_cell_length_a   8.57439381
_cell_length_b   8.57439381
_cell_length_c   20.21958089
_cell_angle_alpha   90.00000000
_cell_angle_beta   90.00000000
_cell_angle_gamma   120.00000000
_symmetry_Int_Tables_number   1
_chemical_formula_structural   Cr2Fe3Co(PO4)6
_chemical_formula_sum   'Cr6 Fe9 Co3 P18 O72'
_cell_volume   1287.38852267
_cell_formula_units_Z   3
loop_
 _symmetry_equiv_pos_site_id
 _symmetry_equiv_pos_as_xyz
  1  'x, y, z'
loop_
 _atom_site_type_symbol
 _atom_site_label
 _atom_site_symmetry_multiplicity
 _atom_site_fract_x
 _atom_site_fract_y
 _atom_site_fract_z
 _atom_site_occupancy
  Cr  Cr0  1  0.33333333  0.66666667  0.66677267  1
  Cr  Cr1  1  0.33333333  0.66666667  0.16607667  1
  Cr  Cr2  1  0.00000000  0.00000000  0.00010600  1
  Cr  Cr3  1  0.00000000  0.00000000  0.49941000  1
  Cr  Cr4  1  0.66666667  0.33333333  0.33343933  1
  Cr  Cr5  1  0.66666667  0.33333333  0.83274333  1
  Fe  Fe6  1  0.33333333  0.66666667  0.81172167  1
  Fe  Fe7  1  0.33333333  0.66666667  0.02006867  1
  Fe  Fe8  1  0.33333333  0.66666667  0.31303367  1
  Fe  Fe9  1  0.00000000  0.00000000  0.14505500  1
  Fe  Fe10  1  0.00000000  0.00000000  0.35340200  1
  Fe  Fe11  1  0.00000000  0.00000000  0.64636700  1
  Fe  Fe12  1  0.66666667  0.33333333  0.47838833  1
  Fe  Fe13  1  0.66666667  0.33333333  0.68673533  1
  Fe  Fe14  1  0.66666667  0.33333333  0.97970033  1
  Co  Co15  1  0.33333333  0.66666667  0.52632767  1
  Co  Co16  1  0.00000000  0.00000000  0.85966100  1
  Co  Co17  1  0.66666667  0.33333333  0.19299433  1
  P  P18  1  0.96009167  0.33498533  0.08506033  1
  P  P19  1  0.37489367  0.03990833  0.08506033  1
  P  P20  1  0.66501467  0.62510633  0.08506033  1
  P  P21  1  0.99798267  0.69933533  0.24828533  1
  P  P22  1  0.30066467  0.29864733  0.24828533  1
  P  P23  1  0.70135267  0.00201733  0.24828533  1
  P  P24  1  0.62675833  0.66831867  0.41839367  1
  P  P25  1  0.04156033  0.37324167  0.41839367  1
  P  P26  1  0.33168133  0.95843967  0.41839367  1
  P  P27  1  0.66464933  0.03266867  0.58161867  1
  P  P28  1  0.96733133  0.63198067  0.58161867  1
  P  P29  1  0.36801933  0.33535067  0.58161867  1
  P  P30  1  0.29342500  0.00165200  0.75172700  1
  P  P31  1  0.70822700  0.70657500  0.75172700  1
  P  P32  1  0.99834800  0.29177300  0.75172700  1
  P  P33  1  0.33131600  0.36600200  0.91495200  1
  P  P34  1  0.63399800  0.96531400  0.91495200  1
  P  P35  1  0.03468600  0.66868400  0.91495200  1
  O  O36  1  0.12872033  0.66236367  0.97781767  1
  O  O37  1  0.33763633  0.46635667  0.97781767  1
  O  O38  1  0.98466500  0.16602500  0.07266000  1
  O  O39  1  0.53364333  0.87127967  0.97781767  1
  O  O40  1  0.86086433  0.33099867  0.14762167  1
  O  O41  1  0.15629167  0.50011233  0.09491633  1
  O  O42  1  0.18136000  0.01533500  0.07266000  1
  O  O43  1  0.34382067  0.84370833  0.09491633  1
  O  O44  1  0.98728233  0.79325967  0.18668467  1
  O  O45  1  0.49988767  0.65617933  0.09491633  1
  O  O46  1  0.82775100  0.50583300  0.25922100  1
  O  O47  1  0.20674033  0.19402267  0.18668467  1
  O  O48  1  0.47013433  0.13913567  0.14762167  1
  O  O49  1  0.83397500  0.81864000  0.07266000  1
  O  O50  1  0.16422067  0.67285733  0.23808433  1
  O  O51  1  0.66900133  0.52986567  0.14762167  1
  O  O52  1  0.32714267  0.49136333  0.23808433  1
  O  O53  1  0.49416700  0.32191800  0.25922100  1
  O  O54  1  0.50863667  0.83577933  0.23808433  1
  O  O55  1  0.80597733  0.01271767  0.18668467  1
  O  O56  1  0.14252133  0.46069567  0.35498167  1
  O  O57  1  0.67808200  0.17224900  0.25922100  1
  O  O58  1  0.31817433  0.85747867  0.35498167  1
  O  O59  1  0.53930433  0.68182567  0.35498167  1
  O  O60  1  0.79538700  0.99569700  0.31115100  1
  O  O61  1  0.00430300  0.79969000  0.31115100  1
  O  O62  1  0.65133167  0.49935833  0.40599333  1
  O  O63  1  0.20031000  0.20461300  0.31115100  1
  O  O64  1  0.52753100  0.66433200  0.48095500  1
  O  O65  1  0.82295833  0.83344567  0.42824967  1
  O  O66  1  0.84802667  0.34866833  0.40599333  1
  O  O67  1  0.01048733  0.17704167  0.42824967  1
  O  O68  1  0.65394900  0.12659300  0.52001800  1
  O  O69  1  0.16655433  0.98951267  0.42824967  1
  O  O70  1  0.49441767  0.83916633  0.59255433  1
  O  O71  1  0.87340700  0.52735600  0.52001800  1
  O  O72  1  0.13680100  0.47246900  0.48095500  1
  O  O73  1  0.50064167  0.15197333  0.40599333  1
  O  O74  1  0.83088733  0.00619067  0.57141767  1
  O  O75  1  0.33566800  0.86319900  0.48095500  1
  O  O76  1  0.99380933  0.82469667  0.57141767  1
  O  O77  1  0.16083367  0.65525133  0.59255433  1
  O  O78  1  0.17530333  0.16911267  0.57141767  1
  O  O79  1  0.47264400  0.34605100  0.52001800  1
  O  O80  1  0.80918800  0.79402900  0.68831500  1
  O  O81  1  0.34474867  0.50558233  0.59255433  1
  O  O82  1  0.98484100  0.19081200  0.68831500  1
  O  O83  1  0.20597100  0.01515900  0.68831500  1
  O  O84  1  0.46205367  0.32903033  0.64448433  1
  O  O85  1  0.67096967  0.13302333  0.64448433  1
  O  O86  1  0.31799833  0.83269167  0.73932667  1
  O  O87  1  0.86697667  0.53794633  0.64448433  1
  O  O88  1  0.19419767  0.99766533  0.81428833  1
  O  O89  1  0.48962500  0.16677900  0.76158300  1
  O  O90  1  0.51469333  0.68200167  0.73932667  1
  O  O91  1  0.67715400  0.51037500  0.76158300  1
  O  O92  1  0.32061567  0.45992633  0.85335133  1
  O  O93  1  0.83322100  0.32284600  0.76158300  1
  O  O94  1  0.16108433  0.17249967  0.92588767  1
  O  O95  1  0.54007367  0.86068933  0.85335133  1
  O  O96  1  0.80346767  0.80580233  0.81428833  1
  O  O97  1  0.16730833  0.48530667  0.73932667  1
  O  O98  1  0.49755400  0.33952400  0.90475100  1
  O  O99  1  0.00233467  0.19653233  0.81428833  1
  O  O100  1  0.66047600  0.15803000  0.90475100  1
  O  O101  1  0.82750033  0.98858467  0.92588767  1
  O  O102  1  0.84197000  0.50244600  0.90475100  1
  O  O103  1  0.13931067  0.67938433  0.85335133  1
  O  O104  1  0.47585467  0.12736233  0.02164833  1
  O  O105  1  0.01141533  0.83891567  0.92588767  1
  O  O106  1  0.65150767  0.52414533  0.02164833  1
  O  O107  1  0.87263767  0.34849233  0.02164833  1
