# generated using pymatgen
data_Zr2N2O
_symmetry_space_group_name_H-M   'P 1'
_cell_length_a   8.84913800
_cell_length_b   8.87853664
_cell_length_c   8.88694156
_cell_angle_alpha   109.47927488
_cell_angle_beta   109.40436392
_cell_angle_gamma   109.35325855
_symmetry_Int_Tables_number   1
_chemical_formula_structural   Zr2N2O
_chemical_formula_sum   'Zr16 N16 O8'
_cell_volume   538.66183719
_cell_formula_units_Z   8
loop_
 _symmetry_equiv_pos_site_id
 _symmetry_equiv_pos_as_xyz
  1  'x, y, z'
loop_
 _atom_site_type_symbol
 _atom_site_label
 _atom_site_symmetry_multiplicity
 _atom_site_fract_x
 _atom_site_fract_y
 _atom_site_fract_z
 _atom_site_occupancy
  Zr  Zr0  1  0.51153000  0.49903400  0.50062900  1
  Zr  Zr1  1  0.21723500  0.75656600  0.46048800  1
  Zr  Zr2  1  0.96291400  0.21200000  0.25631000  1
  Zr  Zr3  1  0.47029900  0.71961700  0.24702700  1
  Zr  Zr4  1  0.28562300  0.24122700  0.03063000  1
  Zr  Zr5  1  0.00338300  0.00960200  0.50081500  1
  Zr  Zr6  1  0.75687600  0.96899100  0.70994100  1
  Zr  Zr7  1  0.99027200  0.50163700  0.99254000  1
  Zr  Zr8  1  0.24478100  0.53736500  0.78730500  1
  Zr  Zr9  1  0.50169600  0.00712800  0.01072800  1
  Zr  Zr10  1  0.73603900  0.45696000  0.20697500  1
  Zr  Zr11  1  0.25105000  0.02920500  0.28809600  1
  Zr  Zr12  1  0.71823700  0.75051300  0.96825000  1
  Zr  Zr13  1  0.03227000  0.79018800  0.75585800  1
  Zr  Zr14  1  0.53861200  0.28233800  0.74934500  1
  Zr  Zr15  1  0.78490300  0.25045300  0.53724700  1
  N  N16  1  0.76889700  0.72599000  0.73597900  1
  N  N17  1  0.54538600  0.51349100  0.27578800  1
  N  N18  1  0.50739500  0.76797800  0.03856500  1
  N  N19  1  0.72732800  0.23513800  0.26828100  1
  N  N20  1  0.23989500  0.76790200  0.22868500  1
  N  N21  1  0.03478700  0.04719600  0.77228800  1
  N  N22  1  0.05200300  0.27560900  0.53601100  1
  N  N23  1  0.76287500  0.22723400  0.77731700  1
  N  N24  1  0.77249000  0.54577000  0.01162800  1
  N  N25  1  0.96595200  0.95903300  0.22688500  1
  N  N26  1  0.72619900  0.96367800  0.45507100  1
  N  N27  1  0.99423300  0.53698800  0.76680100  1
  N  N28  1  0.26068000  0.98786200  0.03351300  1
  N  N29  1  0.48598300  0.22519600  0.95404500  1
  N  N30  1  0.27279400  0.02831600  0.54668300  1
  N  N31  1  0.53197100  0.26475100  0.48849200  1
  O  O32  1  0.27217600  0.75909700  0.72303500  1
  O  O33  1  0.22554900  0.27937200  0.26264800  1
  O  O34  1  0.46066000  0.73637700  0.51581600  1
  O  O35  1  0.01198600  0.46495300  0.23980500  1
  O  O36  1  0.22598100  0.45124800  0.98492000  1
  O  O37  1  0.95957900  0.72359700  0.46689900  1
  O  O38  1  0.73732700  0.01125400  0.96433100  1
  O  O39  1  0.45215500  0.48914700  0.72433300  1
