# generated using pymatgen
data_Li2Ag3F6
_symmetry_space_group_name_H-M   'P 1'
_cell_length_a   5.46302000
_cell_length_b   5.42617000
_cell_length_c   9.83220219
_cell_angle_alpha   90.00000000
_cell_angle_beta   100.92510588
_cell_angle_gamma   90.00000000
_symmetry_Int_Tables_number   1
_chemical_formula_structural   Li2Ag3F6
_chemical_formula_sum   'Li4 Ag6 F12'
_cell_volume   286.17620875
_cell_formula_units_Z   2
loop_
 _symmetry_equiv_pos_site_id
 _symmetry_equiv_pos_as_xyz
  1  'x, y, z'
loop_
 _atom_site_type_symbol
 _atom_site_label
 _atom_site_symmetry_multiplicity
 _atom_site_fract_x
 _atom_site_fract_y
 _atom_site_fract_z
 _atom_site_occupancy
  Li  Li0  1  0.86427400  0.50000000  0.80182600  1
  Li  Li1  1  0.13572600  0.50000000  0.19817400  1
  Li  Li2  1  0.36427400  0.00000000  0.80182600  1
  Li  Li3  1  0.63572600  0.00000000  0.19817400  1
  Ag  Ag4  1  0.00000000  0.00000000  0.00000000  1
  Ag  Ag5  1  0.69635800  0.50000000  0.36624700  1
  Ag  Ag6  1  0.30364200  0.50000000  0.63375300  1
  Ag  Ag7  1  0.50000000  0.50000000  0.00000000  1
  Ag  Ag8  1  0.19635800  0.00000000  0.36624700  1
  Ag  Ag9  1  0.80364200  0.00000000  0.63375300  1
  F  F10  1  0.88220200  0.24383900  0.15076700  1
  F  F11  1  0.80268600  0.50000000  0.60728600  1
  F  F12  1  0.11779800  0.24383900  0.84923300  1
  F  F13  1  0.88220200  0.75616100  0.15076700  1
  F  F14  1  0.19731400  0.50000000  0.39271400  1
  F  F15  1  0.11779800  0.75616100  0.84923300  1
  F  F16  1  0.38220200  0.74383900  0.15076700  1
  F  F17  1  0.30268600  0.00000000  0.60728600  1
  F  F18  1  0.61779800  0.74383900  0.84923300  1
  F  F19  1  0.38220200  0.25616100  0.15076700  1
  F  F20  1  0.69731400  0.00000000  0.39271400  1
  F  F21  1  0.61779800  0.25616100  0.84923300  1
