# generated using pymatgen
data_K5H3S5O14
_symmetry_space_group_name_H-M   'P 1'
_cell_length_a   20.71534200
_cell_length_b   5.98421600
_cell_length_c   15.01068903
_cell_angle_alpha   90.00000000
_cell_angle_beta   104.49239340
_cell_angle_gamma   90.00000000
_symmetry_Int_Tables_number   1
_chemical_formula_structural   K5H3S5O14
_chemical_formula_sum   'K20 H12 S20 O56'
_cell_volume   1801.59220862
_cell_formula_units_Z   4
loop_
 _symmetry_equiv_pos_site_id
 _symmetry_equiv_pos_as_xyz
  1  'x, y, z'
loop_
 _atom_site_type_symbol
 _atom_site_label
 _atom_site_symmetry_multiplicity
 _atom_site_fract_x
 _atom_site_fract_y
 _atom_site_fract_z
 _atom_site_occupancy
  K  K0  1  0.00000000  0.50000000  0.50000000  1
  K  K1  1  0.00000000  0.50000000  0.00000000  1
  K  K2  1  0.72221100  0.00000000  0.11403900  1
  K  K3  1  0.77778900  0.50000000  0.88596100  1
  K  K4  1  0.92393900  0.00000000  0.30251500  1
  K  K5  1  0.57606100  0.50000000  0.69748500  1
  K  K6  1  0.58480500  0.50000000  0.21552100  1
  K  K7  1  0.91519500  0.00000000  0.78447900  1
  K  K8  1  0.79294200  0.50000000  0.37116000  1
  K  K9  1  0.70705800  0.00000000  0.62884000  1
  K  K10  1  0.50000000  0.00000000  0.50000000  1
  K  K11  1  0.50000000  0.00000000  0.00000000  1
  K  K12  1  0.22221100  0.50000000  0.11403900  1
  K  K13  1  0.27778900  0.00000000  0.88596100  1
  K  K14  1  0.42393900  0.50000000  0.30251500  1
  K  K15  1  0.07606100  0.00000000  0.69748500  1
  K  K16  1  0.08480500  0.00000000  0.21552100  1
  K  K17  1  0.41519500  0.50000000  0.78447900  1
  K  K18  1  0.29294200  0.00000000  0.37116000  1
  K  K19  1  0.20705800  0.50000000  0.62884000  1
  H  H20  1  0.61378400  0.00000000  0.35676000  1
  H  H21  1  0.88621600  0.50000000  0.64324000  1
  H  H22  1  0.59421400  0.50000000  0.92585500  1
  H  H23  1  0.90578600  0.00000000  0.07414500  1
  H  H24  1  0.66852200  0.50000000  0.46546400  1
  H  H25  1  0.83147800  0.00000000  0.53453600  1
  H  H26  1  0.11378400  0.50000000  0.35676000  1
  H  H27  1  0.38621600  0.00000000  0.64324000  1
  H  H28  1  0.09421400  0.00000000  0.92585500  1
  H  H29  1  0.40578600  0.50000000  0.07414500  1
  H  H30  1  0.16852200  0.00000000  0.46546400  1
  H  H31  1  0.33147800  0.50000000  0.53453600  1
  S  S32  1  0.84080100  0.50000000  0.15689800  1
  S  S33  1  0.65919900  0.00000000  0.84310200  1
  S  S34  1  0.95474100  0.50000000  0.21198600  1
  S  S35  1  0.54525900  0.00000000  0.78801400  1
  S  S36  1  0.67826300  0.00000000  0.34874100  1
  S  S37  1  0.82173700  0.50000000  0.65125900  1
  S  S38  1  0.62977100  0.50000000  0.01533100  1
  S  S39  1  0.87022900  0.00000000  0.98466900  1
  S  S40  1  0.60708300  0.50000000  0.48257400  1
  S  S41  1  0.89291700  0.00000000  0.51742600  1
  S  S42  1  0.34080100  0.00000000  0.15689800  1
  S  S43  1  0.15919900  0.50000000  0.84310200  1
  S  S44  1  0.45474100  0.00000000  0.21198600  1
  S  S45  1  0.04525900  0.50000000  0.78801400  1
  S  S46  1  0.17826300  0.50000000  0.34874100  1
  S  S47  1  0.32173700  0.00000000  0.65125900  1
  S  S48  1  0.12977100  0.00000000  0.01533100  1
  S  S49  1  0.37022900  0.50000000  0.98466900  1
  S  S50  1  0.10708300  0.00000000  0.48257400  1
  S  S51  1  0.39291700  0.50000000  0.51742600  1
  O  O52  1  0.82547200  0.70752200  0.20472300  1
  O  O53  1  0.82547200  0.29247800  0.20472300  1
  O  O54  1  0.67452800  0.79247800  0.79527700  1
  O  O55  1  0.67452800  0.20752200  0.79527700  1
  O  O56  1  0.97983350  0.70664450  0.17655700  1
  O  O57  1  0.97983350  0.29335550  0.17655700  1
  O  O58  1  0.52016650  0.79335550  0.82344300  1
  O  O59  1  0.52016650  0.20664450  0.82344300  1
  O  O60  1  0.96640800  0.50000000  0.31364700  1
  O  O61  1  0.53359200  0.00000000  0.68635300  1
  O  O62  1  0.68374850  0.79463250  0.29682200  1
  O  O63  1  0.68374850  0.20536750  0.29682200  1
  O  O64  1  0.81625150  0.70536750  0.70317800  1
  O  O65  1  0.81625150  0.29463250  0.70317800  1
  O  O66  1  0.72111100  0.00000000  0.44222000  1
  O  O67  1  0.77888900  0.50000000  0.55778000  1
  O  O68  1  0.60888850  0.70504450  0.05525200  1
  O  O69  1  0.60888850  0.29495550  0.05525200  1
  O  O70  1  0.89111150  0.79495550  0.94474800  1
  O  O71  1  0.89111150  0.20504450  0.94474800  1
  O  O72  1  0.70064600  0.50000000  0.01597900  1
  O  O73  1  0.79935400  0.00000000  0.98402100  1
  O  O74  1  0.60475850  0.70390950  0.53684100  1
  O  O75  1  0.60475850  0.29609050  0.53684100  1
  O  O76  1  0.89524150  0.79609050  0.46315900  1
  O  O77  1  0.89524150  0.20390950  0.46315900  1
  O  O78  1  0.55869500  0.50000000  0.39266600  1
  O  O79  1  0.94130500  0.00000000  0.60733400  1
  O  O80  1  0.32547200  0.20752200  0.20472300  1
  O  O81  1  0.32547200  0.79247800  0.20472300  1
  O  O82  1  0.17452800  0.29247800  0.79527700  1
  O  O83  1  0.17452800  0.70752200  0.79527700  1
  O  O84  1  0.47983350  0.20664450  0.17655700  1
  O  O85  1  0.47983350  0.79335550  0.17655700  1
  O  O86  1  0.02016650  0.29335550  0.82344300  1
  O  O87  1  0.02016650  0.70664450  0.82344300  1
  O  O88  1  0.46640800  0.00000000  0.31364700  1
  O  O89  1  0.03359200  0.50000000  0.68635300  1
  O  O90  1  0.18374850  0.29463250  0.29682200  1
  O  O91  1  0.18374850  0.70536750  0.29682200  1
  O  O92  1  0.31625150  0.20536750  0.70317800  1
  O  O93  1  0.31625150  0.79463250  0.70317800  1
  O  O94  1  0.22111100  0.50000000  0.44222000  1
  O  O95  1  0.27888900  0.00000000  0.55778000  1
  O  O96  1  0.10888850  0.20504450  0.05525200  1
  O  O97  1  0.10888850  0.79495550  0.05525200  1
  O  O98  1  0.39111150  0.29495550  0.94474800  1
  O  O99  1  0.39111150  0.70504450  0.94474800  1
  O  O100  1  0.20064600  0.00000000  0.01597900  1
  O  O101  1  0.29935400  0.50000000  0.98402100  1
  O  O102  1  0.10475850  0.20390950  0.53684100  1
  O  O103  1  0.10475850  0.79609050  0.53684100  1
  O  O104  1  0.39524150  0.29609050  0.46315900  1
  O  O105  1  0.39524150  0.70390950  0.46315900  1
  O  O106  1  0.05869500  0.00000000  0.39266600  1
  O  O107  1  0.44130500  0.50000000  0.60733400  1
