# generated using pymatgen
data_V5Sn(PO4)6
_symmetry_space_group_name_H-M   'P 1'
_cell_length_a   8.70787952
_cell_length_b   8.70787952
_cell_length_c   21.15705976
_cell_angle_alpha   90.00000000
_cell_angle_beta   90.00000000
_cell_angle_gamma   120.00000000
_symmetry_Int_Tables_number   1
_chemical_formula_structural   V5Sn(PO4)6
_chemical_formula_sum   'V15 Sn3 P18 O72'
_cell_volume   1389.34712844
_cell_formula_units_Z   3
loop_
 _symmetry_equiv_pos_site_id
 _symmetry_equiv_pos_as_xyz
  1  'x, y, z'
loop_
 _atom_site_type_symbol
 _atom_site_label
 _atom_site_symmetry_multiplicity
 _atom_site_fract_x
 _atom_site_fract_y
 _atom_site_fract_z
 _atom_site_occupancy
  V  V0  1  0.33333333  0.66666667  0.66907967  1
  V  V1  1  0.33333333  0.66666667  0.02220367  1
  V  V2  1  0.33333333  0.66666667  0.16642967  1
  V  V3  1  0.33333333  0.66666667  0.81044767  1
  V  V4  1  0.33333333  0.66666667  0.30898067  1
  V  V5  1  0.00000000  0.00000000  0.00241300  1
  V  V6  1  0.00000000  0.00000000  0.35553700  1
  V  V7  1  0.00000000  0.00000000  0.49976300  1
  V  V8  1  0.00000000  0.00000000  0.14378100  1
  V  V9  1  0.00000000  0.00000000  0.64231400  1
  V  V10  1  0.66666667  0.33333333  0.33574633  1
  V  V11  1  0.66666667  0.33333333  0.68887033  1
  V  V12  1  0.66666667  0.33333333  0.83309633  1
  V  V13  1  0.66666667  0.33333333  0.47711433  1
  V  V14  1  0.66666667  0.33333333  0.97564733  1
  Sn  Sn15  1  0.33333333  0.66666667  0.52215167  1
  Sn  Sn16  1  0.00000000  0.00000000  0.85548500  1
  Sn  Sn17  1  0.66666667  0.33333333  0.18881833  1
  P  P18  1  0.66579667  0.62977033  0.08187033  1
  P  P19  1  0.96397367  0.33420333  0.08187033  1
  P  P20  1  0.37022967  0.03602633  0.08187033  1
  P  P21  1  0.29029367  0.29337333  0.25008033  1
  P  P22  1  0.70662667  0.99692033  0.25008033  1
  P  P23  1  0.00307967  0.70970633  0.25008033  1
  P  P24  1  0.33246333  0.96310367  0.41520367  1
  P  P25  1  0.63064033  0.66753667  0.41520367  1
  P  P26  1  0.03689633  0.36935967  0.41520367  1
  P  P27  1  0.95696033  0.62670667  0.58341367  1
  P  P28  1  0.37329333  0.33025367  0.58341367  1
  P  P29  1  0.66974633  0.04303967  0.58341367  1
  P  P30  1  0.99913000  0.29643700  0.74853700  1
  P  P31  1  0.29730700  0.00087000  0.74853700  1
  P  P32  1  0.70356300  0.70269300  0.74853700  1
  P  P33  1  0.62362700  0.96004000  0.91674700  1
  P  P34  1  0.03996000  0.66358700  0.91674700  1
  P  P35  1  0.33641300  0.37637300  0.91674700  1
  O  O36  1  0.52980033  0.66885967  0.35709367  1
  O  O37  1  0.13905933  0.47019967  0.35709367  1
  O  O38  1  0.33114033  0.86094067  0.35709367  1
  O  O39  1  0.83354500  0.81839300  0.07673100  1
  O  O40  1  0.66642533  0.53849267  0.14464467  1
  O  O41  1  0.49965133  0.65286767  0.08841867  1
  O  O42  1  0.98484800  0.16645500  0.07673100  1
  O  O43  1  0.15321633  0.50034867  0.08841867  1
  O  O44  1  0.19838100  0.19487500  0.18961600  1
  O  O45  1  0.34713233  0.84678367  0.08841867  1
  O  O46  1  0.48164400  0.31476300  0.25807500  1
  O  O47  1  0.80512500  0.00350600  0.18961600  1
  O  O48  1  0.87206733  0.33357467  0.14464467  1
  O  O49  1  0.18160700  0.01515200  0.07673100  1
  O  O50  1  0.31681733  0.48378467  0.24324367  1
  O  O51  1  0.46150733  0.12793267  0.14464467  1
  O  O52  1  0.51621533  0.83303267  0.24324367  1
  O  O53  1  0.68523700  0.16688100  0.25807500  1
  O  O54  1  0.16696733  0.68318267  0.24324367  1
  O  O55  1  0.99649400  0.80161900  0.18961600  1
  O  O56  1  0.83311900  0.51835600  0.25807500  1
  O  O57  1  0.33974933  0.47440267  0.97713767  1
  O  O58  1  0.52559733  0.86534667  0.97713767  1
  O  O59  1  0.13465333  0.66025067  0.97713767  1
  O  O60  1  0.19646700  0.00219300  0.69042700  1
  O  O61  1  0.80572600  0.80353300  0.69042700  1
  O  O62  1  0.99780700  0.19427400  0.69042700  1
  O  O63  1  0.50021167  0.15172633  0.41006433  1
  O  O64  1  0.33309200  0.87182600  0.47797800  1
  O  O65  1  0.16631800  0.98620100  0.42175200  1
  O  O66  1  0.65151467  0.49978833  0.41006433  1
  O  O67  1  0.81988300  0.83368200  0.42175200  1
  O  O68  1  0.86504767  0.52820833  0.52294933  1
  O  O69  1  0.01379900  0.18011700  0.42175200  1
  O  O70  1  0.14831067  0.64809633  0.59140833  1
  O  O71  1  0.47179167  0.33683933  0.52294933  1
  O  O72  1  0.53873400  0.66690800  0.47797800  1
  O  O73  1  0.84827367  0.34848533  0.41006433  1
  O  O74  1  0.98348400  0.81711800  0.57657700  1
  O  O75  1  0.12817400  0.46126600  0.47797800  1
  O  O76  1  0.18288200  0.16636600  0.57657700  1
  O  O77  1  0.35190367  0.50021433  0.59140833  1
  O  O78  1  0.83363400  0.01651600  0.57657700  1
  O  O79  1  0.66316067  0.13495233  0.52294933  1
  O  O80  1  0.49978567  0.85168933  0.59140833  1
  O  O81  1  0.00641600  0.80773600  0.31047100  1
  O  O82  1  0.19226400  0.19868000  0.31047100  1
  O  O83  1  0.80132000  0.99358400  0.31047100  1
  O  O84  1  0.86313367  0.33552633  0.02376033  1
  O  O85  1  0.47239267  0.13686633  0.02376033  1
  O  O86  1  0.66447367  0.52760733  0.02376033  1
  O  O87  1  0.16687833  0.48505967  0.74339767  1
  O  O88  1  0.99975867  0.20515933  0.81131133  1
  O  O89  1  0.83298467  0.31953433  0.75508533  1
  O  O90  1  0.31818133  0.83312167  0.74339767  1
  O  O91  1  0.48654967  0.16701533  0.75508533  1
  O  O92  1  0.53171433  0.86154167  0.85628267  1
  O  O93  1  0.68046567  0.51345033  0.75508533  1
  O  O94  1  0.81497733  0.98142967  0.92474167  1
  O  O95  1  0.13845833  0.67017267  0.85628267  1
  O  O96  1  0.20540067  0.00024133  0.81131133  1
  O  O97  1  0.51494033  0.68181867  0.74339767  1
  O  O98  1  0.65015067  0.15045133  0.90991033  1
  O  O99  1  0.79484067  0.79459933  0.81131133  1
  O  O100  1  0.84954867  0.49969933  0.90991033  1
  O  O101  1  0.01857033  0.83354767  0.92474167  1
  O  O102  1  0.50030067  0.34984933  0.90991033  1
  O  O103  1  0.32982733  0.46828567  0.85628267  1
  O  O104  1  0.16645233  0.18502267  0.92474167  1
  O  O105  1  0.67308267  0.14106933  0.64380433  1
  O  O106  1  0.85893067  0.53201333  0.64380433  1
  O  O107  1  0.46798667  0.32691733  0.64380433  1
