# generated using pymatgen
data_Sr4HfO6
_symmetry_space_group_name_H-M   'P 1'
_cell_length_a   10.02080389
_cell_length_b   10.02080389
_cell_length_c   12.20897824
_cell_angle_alpha   90.00000000
_cell_angle_beta   90.00000000
_cell_angle_gamma   120.00000000
_symmetry_Int_Tables_number   1
_chemical_formula_structural   Sr4HfO6
_chemical_formula_sum   'Sr24 Hf6 O36'
_cell_volume   1061.73241534
_cell_formula_units_Z   6
loop_
 _symmetry_equiv_pos_site_id
 _symmetry_equiv_pos_as_xyz
  1  'x, y, z'
loop_
 _atom_site_type_symbol
 _atom_site_label
 _atom_site_symmetry_multiplicity
 _atom_site_fract_x
 _atom_site_fract_y
 _atom_site_fract_z
 _atom_site_occupancy
  Sr  Sr0  1  0.68985033  0.66666667  0.41666667  1
  Sr  Sr1  1  0.66666667  0.97681633  0.58333333  1
  Sr  Sr2  1  0.02318367  0.68985033  0.58333333  1
  Sr  Sr3  1  0.00000000  0.00000000  0.75000000  1
  Sr  Sr4  1  0.00000000  0.00000000  0.25000000  1
  Sr  Sr5  1  0.97681633  0.31014967  0.41666667  1
  Sr  Sr6  1  0.33333333  0.02318367  0.41666667  1
  Sr  Sr7  1  0.31014967  0.33333333  0.58333333  1
  Sr  Sr8  1  0.35651700  0.00000000  0.75000000  1
  Sr  Sr9  1  0.33333333  0.31014967  0.91666667  1
  Sr  Sr10  1  0.68985033  0.02318367  0.91666667  1
  Sr  Sr11  1  0.66666667  0.33333333  0.08333333  1
  Sr  Sr12  1  0.66666667  0.33333333  0.58333333  1
  Sr  Sr13  1  0.64348300  0.64348300  0.75000000  1
  Sr  Sr14  1  0.00000000  0.35651700  0.75000000  1
  Sr  Sr15  1  0.97681633  0.66666667  0.91666667  1
  Sr  Sr16  1  0.02318367  0.33333333  0.08333333  1
  Sr  Sr17  1  0.00000000  0.64348300  0.25000000  1
  Sr  Sr18  1  0.35651700  0.35651700  0.25000000  1
  Sr  Sr19  1  0.33333333  0.66666667  0.41666667  1
  Sr  Sr20  1  0.33333333  0.66666667  0.91666667  1
  Sr  Sr21  1  0.31014967  0.97681633  0.08333333  1
  Sr  Sr22  1  0.66666667  0.68985033  0.08333333  1
  Sr  Sr23  1  0.64348300  0.00000000  0.25000000  1
  Hf  Hf24  1  0.00000000  0.00000000  0.50000000  1
  Hf  Hf25  1  0.00000000  0.00000000  0.00000000  1
  Hf  Hf26  1  0.66666667  0.33333333  0.83333333  1
  Hf  Hf27  1  0.66666667  0.33333333  0.33333333  1
  Hf  Hf28  1  0.33333333  0.66666667  0.16666667  1
  Hf  Hf29  1  0.33333333  0.66666667  0.66666667  1
  O  O30  1  0.48956567  0.63977933  0.56515133  1
  O  O31  1  0.84978633  0.48956567  0.43484867  1
  O  O32  1  0.84376767  0.81688033  0.60151533  1
  O  O33  1  0.81688033  0.97311267  0.39848467  1
  O  O34  1  0.63977933  0.15021367  0.43484867  1
  O  O35  1  0.02688733  0.84376767  0.39848467  1
  O  O36  1  0.97311267  0.15623233  0.60151533  1
  O  O37  1  0.18311967  0.02688733  0.60151533  1
  O  O38  1  0.36022067  0.84978633  0.56515133  1
  O  O39  1  0.15623233  0.18311967  0.39848467  1
  O  O40  1  0.15021367  0.51043433  0.56515133  1
  O  O41  1  0.51043433  0.36022067  0.43484867  1
  O  O42  1  0.15623233  0.97311267  0.89848467  1
  O  O43  1  0.51645300  0.82289900  0.76818200  1
  O  O44  1  0.51043433  0.15021367  0.93484867  1
  O  O45  1  0.48354700  0.30644600  0.73181800  1
  O  O46  1  0.30644600  0.48354700  0.76818200  1
  O  O47  1  0.69355400  0.17710100  0.73181800  1
  O  O48  1  0.63977933  0.48956567  0.93484867  1
  O  O49  1  0.84978633  0.36022067  0.93484867  1
  O  O50  1  0.02688733  0.18311967  0.89848467  1
  O  O51  1  0.82289900  0.51645300  0.73181800  1
  O  O52  1  0.81688033  0.84376767  0.89848467  1
  O  O53  1  0.17710100  0.69355400  0.76818200  1
  O  O54  1  0.82289900  0.30644600  0.23181800  1
  O  O55  1  0.18311967  0.15623233  0.10151533  1
  O  O56  1  0.17710100  0.48354700  0.26818200  1
  O  O57  1  0.15021367  0.63977933  0.06515133  1
  O  O58  1  0.97311267  0.81688033  0.10151533  1
  O  O59  1  0.36022067  0.51043433  0.06515133  1
  O  O60  1  0.30644600  0.82289900  0.26818200  1
  O  O61  1  0.51645300  0.69355400  0.26818200  1
  O  O62  1  0.69355400  0.51645300  0.23181800  1
  O  O63  1  0.48956567  0.84978633  0.06515133  1
  O  O64  1  0.48354700  0.17710100  0.23181800  1
  O  O65  1  0.84376767  0.02688733  0.10151533  1
