# generated using pymatgen
data_LiMnPO4
_symmetry_space_group_name_H-M   'P 1'
_cell_length_a   5.23979821
_cell_length_b   7.98116210
_cell_length_c   9.02257031
_cell_angle_alpha   87.22794795
_cell_angle_beta   87.25374364
_cell_angle_gamma   77.25880538
_symmetry_Int_Tables_number   1
_chemical_formula_structural   LiMnPO4
_chemical_formula_sum   'Li4 Mn4 P4 O16'
_cell_volume   367.33052441
_cell_formula_units_Z   4
loop_
 _symmetry_equiv_pos_site_id
 _symmetry_equiv_pos_as_xyz
  1  'x, y, z'
loop_
 _atom_site_type_symbol
 _atom_site_label
 _atom_site_symmetry_multiplicity
 _atom_site_fract_x
 _atom_site_fract_y
 _atom_site_fract_z
 _atom_site_occupancy
  Li  Li0  1  0.86815400  0.02997700  0.35218900  1
  Li  Li1  1  0.13184600  0.97002300  0.64781100  1
  Li  Li2  1  0.82516600  0.56574900  0.23354600  1
  Li  Li3  1  0.17483400  0.43425100  0.76645400  1
  Mn  Mn4  1  0.68950900  0.31932900  0.56172400  1
  Mn  Mn5  1  0.31049100  0.68067100  0.43827600  1
  Mn  Mn6  1  0.76053500  0.81450600  0.91045200  1
  Mn  Mn7  1  0.23946500  0.18549400  0.08954800  1
  P  P8  1  0.75643100  0.72063200  0.58105000  1
  P  P9  1  0.24356900  0.27936800  0.41895000  1
  P  P10  1  0.76156800  0.20874400  0.88552900  1
  P  P11  1  0.23843200  0.79125600  0.11447100  1
  O  O12  1  0.93640500  0.82873300  0.49612700  1
  O  O13  1  0.06359500  0.17126700  0.50387300  1
  O  O14  1  0.99350100  0.71463000  0.09101200  1
  O  O15  1  0.00649900  0.28537000  0.90898800  1
  O  O16  1  0.88298000  0.65094500  0.72991000  1
  O  O17  1  0.11702000  0.34905500  0.27009000  1
  O  O18  1  0.73403000  0.56958700  0.47854900  1
  O  O19  1  0.26597000  0.43041300  0.52145100  1
  O  O20  1  0.85571100  0.03544300  0.80411200  1
  O  O21  1  0.14428900  0.96455700  0.19588800  1
  O  O22  1  0.56840600  0.33496100  0.78341700  1
  O  O23  1  0.43159400  0.66503900  0.21658300  1
  O  O24  1  0.62631900  0.17385200  0.03569100  1
  O  O25  1  0.37368100  0.82614800  0.96430900  1
  O  O26  1  0.47262600  0.82437400  0.60137100  1
  O  O27  1  0.52737400  0.17562600  0.39862900  1
