# generated using pymatgen
data_CoTe2O5
_symmetry_space_group_name_H-M   'P 1'
_cell_length_a   8.65099500
_cell_length_b   9.09599000
_cell_length_c   12.27202400
_cell_angle_alpha   90.00000000
_cell_angle_beta   90.00000000
_cell_angle_gamma   90.00000000
_symmetry_Int_Tables_number   1
_chemical_formula_structural   CoTe2O5
_chemical_formula_sum   'Co8 Te16 O40'
_cell_volume   965.67776368
_cell_formula_units_Z   8
loop_
 _symmetry_equiv_pos_site_id
 _symmetry_equiv_pos_as_xyz
  1  'x, y, z'
loop_
 _atom_site_type_symbol
 _atom_site_label
 _atom_site_symmetry_multiplicity
 _atom_site_fract_x
 _atom_site_fract_y
 _atom_site_fract_z
 _atom_site_occupancy
  Co  Co0  1  0.51564800  0.01396700  0.12099700  1
  Co  Co1  1  0.51564800  0.01396700  0.37900300  1
  Co  Co2  1  0.01564800  0.48603300  0.62099700  1
  Co  Co3  1  0.01564800  0.48603300  0.87900300  1
  Co  Co4  1  0.98435200  0.51396700  0.12099700  1
  Co  Co5  1  0.98435200  0.51396700  0.37900300  1
  Co  Co6  1  0.48435200  0.98603300  0.87900300  1
  Co  Co7  1  0.48435200  0.98603300  0.62099700  1
  Te  Te8  1  0.19929600  0.10473200  0.25000000  1
  Te  Te9  1  0.84009300  0.15081900  0.51247300  1
  Te  Te10  1  0.84009300  0.15081900  0.98752700  1
  Te  Te11  1  0.18195200  0.16839400  0.75000000  1
  Te  Te12  1  0.68195200  0.33160600  0.25000000  1
  Te  Te13  1  0.34009300  0.34918100  0.01247300  1
  Te  Te14  1  0.34009300  0.34918100  0.48752700  1
  Te  Te15  1  0.69929600  0.39526800  0.75000000  1
  Te  Te16  1  0.30070400  0.60473200  0.25000000  1
  Te  Te17  1  0.65990700  0.65081900  0.51247300  1
  Te  Te18  1  0.65990700  0.65081900  0.98752700  1
  Te  Te19  1  0.31804800  0.66839400  0.75000000  1
  Te  Te20  1  0.81804800  0.83160600  0.25000000  1
  Te  Te21  1  0.15990700  0.84918100  0.01247300  1
  Te  Te22  1  0.15990700  0.84918100  0.48752700  1
  Te  Te23  1  0.80070400  0.89526800  0.75000000  1
  O  O24  1  0.90545400  0.00906100  0.62766400  1
  O  O25  1  0.90545400  0.00906100  0.87233600  1
  O  O26  1  0.63033700  0.03001100  0.75000000  1
  O  O27  1  0.62145500  0.11914700  0.51197700  1
  O  O28  1  0.62145500  0.11914700  0.98802300  1
  O  O29  1  0.65833500  0.12188700  0.25000000  1
  O  O30  1  0.32329500  0.15609700  0.62940300  1
  O  O31  1  0.32329500  0.15609700  0.87059700  1
  O  O32  1  0.35210100  0.19017600  0.11373600  1
  O  O33  1  0.35210100  0.19017600  0.38626400  1
  O  O34  1  0.85210100  0.30982400  0.61373600  1
  O  O35  1  0.85210100  0.30982400  0.88626400  1
  O  O36  1  0.82329500  0.34390300  0.12940300  1
  O  O37  1  0.82329500  0.34390300  0.37059700  1
  O  O38  1  0.15833500  0.37811300  0.75000000  1
  O  O39  1  0.12145500  0.38085300  0.01197700  1
  O  O40  1  0.12145500  0.38085300  0.48802300  1
  O  O41  1  0.13033700  0.46998900  0.25000000  1
  O  O42  1  0.40545400  0.49093900  0.37233600  1
  O  O43  1  0.40545400  0.49093900  0.12766400  1
  O  O44  1  0.59454600  0.50906100  0.87233600  1
  O  O45  1  0.59454600  0.50906100  0.62766400  1
  O  O46  1  0.86966300  0.53001100  0.75000000  1
  O  O47  1  0.87854500  0.61914700  0.51197700  1
  O  O48  1  0.87854500  0.61914700  0.98802300  1
  O  O49  1  0.84166500  0.62188700  0.25000000  1
  O  O50  1  0.17670500  0.65609700  0.87059700  1
  O  O51  1  0.17670500  0.65609700  0.62940300  1
  O  O52  1  0.14789900  0.69017600  0.11373600  1
  O  O53  1  0.14789900  0.69017600  0.38626400  1
  O  O54  1  0.64789900  0.80982400  0.88626400  1
  O  O55  1  0.64789900  0.80982400  0.61373600  1
  O  O56  1  0.67670500  0.84390300  0.12940300  1
  O  O57  1  0.67670500  0.84390300  0.37059700  1
  O  O58  1  0.34166500  0.87811300  0.75000000  1
  O  O59  1  0.37854500  0.88085300  0.01197700  1
  O  O60  1  0.37854500  0.88085300  0.48802300  1
  O  O61  1  0.36966300  0.96998900  0.25000000  1
  O  O62  1  0.09454600  0.99093900  0.12766400  1
  O  O63  1  0.09454600  0.99093900  0.37233600  1
