# generated using pymatgen
data_Tb2Zr2O7
_symmetry_space_group_name_H-M   'P 1'
_cell_length_a   10.48744800
_cell_length_b   10.48744800
_cell_length_c   5.45720100
_cell_angle_alpha   90.00000000
_cell_angle_beta   90.00000000
_cell_angle_gamma   90.00000000
_symmetry_Int_Tables_number   1
_chemical_formula_structural   Tb2Zr2O7
_chemical_formula_sum   'Tb8 Zr8 O28'
_cell_volume   600.21879552
_cell_formula_units_Z   4
loop_
 _symmetry_equiv_pos_site_id
 _symmetry_equiv_pos_as_xyz
  1  'x, y, z'
loop_
 _atom_site_type_symbol
 _atom_site_label
 _atom_site_symmetry_multiplicity
 _atom_site_fract_x
 _atom_site_fract_y
 _atom_site_fract_z
 _atom_site_occupancy
  Tb  Tb0  1  0.37472100  0.37472100  0.25000000  1
  Tb  Tb1  1  0.37472100  0.62527900  0.75000000  1
  Tb  Tb2  1  0.62527900  0.37472100  0.75000000  1
  Tb  Tb3  1  0.62527900  0.62527900  0.25000000  1
  Tb  Tb4  1  0.87472100  0.87472100  0.25000000  1
  Tb  Tb5  1  0.87472100  0.12527900  0.75000000  1
  Tb  Tb6  1  0.12527900  0.87472100  0.75000000  1
  Tb  Tb7  1  0.12527900  0.12527900  0.25000000  1
  Zr  Zr8  1  0.36131400  0.86131400  0.23023800  1
  Zr  Zr9  1  0.36131400  0.13868600  0.73023800  1
  Zr  Zr10  1  0.63868600  0.86131400  0.73023800  1
  Zr  Zr11  1  0.63868600  0.13868600  0.23023800  1
  Zr  Zr12  1  0.86131400  0.36131400  0.26976200  1
  Zr  Zr13  1  0.86131400  0.63868600  0.76976200  1
  Zr  Zr14  1  0.13868600  0.36131400  0.76976200  1
  Zr  Zr15  1  0.13868600  0.63868600  0.26976200  1
  O  O16  1  0.21108300  0.49437000  0.03381300  1
  O  O17  1  0.21108300  0.50563000  0.53381300  1
  O  O18  1  0.25458000  0.75458000  0.48244900  1
  O  O19  1  0.25458000  0.24542000  0.98244900  1
  O  O20  1  0.49437000  0.21108300  0.46618700  1
  O  O21  1  0.49437000  0.78891700  0.96618700  1
  O  O22  1  0.50000000  0.50000000  0.00000000  1
  O  O23  1  0.50000000  0.50000000  0.50000000  1
  O  O24  1  0.50563000  0.21108300  0.96618700  1
  O  O25  1  0.50563000  0.78891700  0.46618700  1
  O  O26  1  0.74542000  0.75458000  0.98244900  1
  O  O27  1  0.74542000  0.24542000  0.48244900  1
  O  O28  1  0.78891700  0.49437000  0.53381300  1
  O  O29  1  0.78891700  0.50563000  0.03381300  1
  O  O30  1  0.71108300  0.99437000  0.46618700  1
  O  O31  1  0.71108300  0.00563000  0.96618700  1
  O  O32  1  0.75458000  0.74542000  0.51755100  1
  O  O33  1  0.75458000  0.25458000  0.01755100  1
  O  O34  1  0.99437000  0.71108300  0.03381300  1
  O  O35  1  0.99437000  0.28891700  0.53381300  1
  O  O36  1  0.00000000  0.00000000  0.00000000  1
  O  O37  1  0.00000000  0.00000000  0.50000000  1
  O  O38  1  0.00563000  0.71108300  0.53381300  1
  O  O39  1  0.00563000  0.28891700  0.03381300  1
  O  O40  1  0.24542000  0.74542000  0.01755100  1
  O  O41  1  0.24542000  0.25458000  0.51755100  1
  O  O42  1  0.28891700  0.99437000  0.96618700  1
  O  O43  1  0.28891700  0.00563000  0.46618700  1
