# generated using pymatgen
data_Li2VO2F
_symmetry_space_group_name_H-M   'P 1'
_cell_length_a   26.12502800
_cell_length_b   3.00351200
_cell_length_c   7.36353257
_cell_angle_alpha   90.00000000
_cell_angle_beta   90.17557895
_cell_angle_gamma   90.00000000
_symmetry_Int_Tables_number   1
_chemical_formula_structural   Li2VO2F
_chemical_formula_sum   'Li20 V10 O20 F10'
_cell_volume   577.79038331
_cell_formula_units_Z   10
loop_
 _symmetry_equiv_pos_site_id
 _symmetry_equiv_pos_as_xyz
  1  'x, y, z'
loop_
 _atom_site_type_symbol
 _atom_site_label
 _atom_site_symmetry_multiplicity
 _atom_site_fract_x
 _atom_site_fract_y
 _atom_site_fract_z
 _atom_site_occupancy
  Li  Li0  1  0.52722400  0.00000000  0.14106300  1
  Li  Li1  1  0.92721500  0.00000000  0.13592300  1
  Li  Li2  1  0.74106200  0.00000000  0.15998300  1
  Li  Li3  1  0.67603900  0.00000000  0.84796300  1
  Li  Li4  1  0.87601200  0.00000000  0.86812500  1
  Li  Li5  1  0.84316700  0.50000000  0.14329000  1
  Li  Li6  1  0.64099000  0.50000000  0.15247500  1
  Li  Li7  1  0.57148500  0.50000000  0.84615000  1
  Li  Li8  1  0.96064700  0.50000000  0.85547700  1
  Li  Li9  1  0.77654100  0.50000000  0.84095100  1
  Li  Li10  1  0.02722400  0.50000000  0.14106300  1
  Li  Li11  1  0.42721500  0.50000000  0.13592300  1
  Li  Li12  1  0.24106200  0.50000000  0.15998300  1
  Li  Li13  1  0.17603900  0.50000000  0.84796300  1
  Li  Li14  1  0.37601200  0.50000000  0.86812500  1
  Li  Li15  1  0.34316700  0.00000000  0.14329000  1
  Li  Li16  1  0.14099000  0.00000000  0.15247500  1
  Li  Li17  1  0.07148500  0.00000000  0.84615000  1
  Li  Li18  1  0.46064700  0.00000000  0.85547700  1
  Li  Li19  1  0.27654100  0.00000000  0.84095100  1
  V  V20  1  0.50254100  0.50000000  0.50741500  1
  V  V21  1  0.80391900  0.00000000  0.49789000  1
  V  V22  1  0.60920800  0.00000000  0.51805300  1
  V  V23  1  0.90280000  0.50000000  0.49775300  1
  V  V24  1  0.70594300  0.50000000  0.50106100  1
  V  V25  1  0.00254100  0.00000000  0.50741500  1
  V  V26  1  0.30391900  0.50000000  0.49789000  1
  V  V27  1  0.10920800  0.50000000  0.51805300  1
  V  V28  1  0.40280000  0.00000000  0.49775300  1
  V  V29  1  0.20594300  0.00000000  0.50106100  1
  O  O30  1  0.54191100  0.00000000  0.63878800  1
  O  O31  1  0.73670200  0.00000000  0.65315900  1
  O  O32  1  0.93787700  0.00000000  0.64789500  1
  O  O33  1  0.87024100  0.00000000  0.35168500  1
  O  O34  1  0.66915800  0.00000000  0.35043800  1
  O  O35  1  0.83574200  0.50000000  0.64340800  1
  O  O36  1  0.63914600  0.50000000  0.66002300  1
  O  O37  1  0.76858600  0.50000000  0.34566200  1
  O  O38  1  0.97416500  0.50000000  0.35405500  1
  O  O39  1  0.90343900  0.50000000  0.00150600  1
  O  O40  1  0.04191100  0.50000000  0.63878800  1
  O  O41  1  0.23670200  0.50000000  0.65315900  1
  O  O42  1  0.43787700  0.50000000  0.64789500  1
  O  O43  1  0.37024100  0.50000000  0.35168500  1
  O  O44  1  0.16915800  0.50000000  0.35043800  1
  O  O45  1  0.33574200  0.00000000  0.64340800  1
  O  O46  1  0.13914600  0.00000000  0.66002300  1
  O  O47  1  0.26858600  0.00000000  0.34566200  1
  O  O48  1  0.47416500  0.00000000  0.35405500  1
  O  O49  1  0.40343900  0.00000000  0.00150600  1
  F  F50  1  0.50947700  0.50000000  0.99256400  1
  F  F51  1  0.79983400  0.00000000  0.99878700  1
  F  F52  1  0.60550100  0.00000000  0.00453700  1
  F  F53  1  0.57396000  0.50000000  0.34104400  1
  F  F54  1  0.70343000  0.50000000  0.00287300  1
  F  F55  1  0.00947700  0.00000000  0.99256400  1
  F  F56  1  0.29983400  0.50000000  0.99878700  1
  F  F57  1  0.10550100  0.50000000  0.00453700  1
  F  F58  1  0.07396000  0.00000000  0.34104400  1
  F  F59  1  0.20343000  0.00000000  0.00287300  1
