# generated using pymatgen
data_Li7Fe3Ni(PO4)6
_symmetry_space_group_name_H-M   'P 1'
_cell_length_a   8.81594986
_cell_length_b   8.81594986
_cell_length_c   21.03856146
_cell_angle_alpha   90.00000000
_cell_angle_beta   90.00000000
_cell_angle_gamma   120.00000000
_symmetry_Int_Tables_number   1
_chemical_formula_structural   Li7Fe3Ni(PO4)6
_chemical_formula_sum   'Li21 Fe9 Ni3 P18 O72'
_cell_volume   1416.07056467
_cell_formula_units_Z   3
loop_
 _symmetry_equiv_pos_site_id
 _symmetry_equiv_pos_as_xyz
  1  'x, y, z'
loop_
 _atom_site_type_symbol
 _atom_site_label
 _atom_site_symmetry_multiplicity
 _atom_site_fract_x
 _atom_site_fract_y
 _atom_site_fract_z
 _atom_site_occupancy
  Li  Li0  1  0.35559000  0.44845000  0.20602200  1
  Li  Li1  1  0.09286000  0.64441000  0.20602200  1
  Li  Li2  1  0.05812533  0.30076467  0.09653767  1
  Li  Li3  1  0.55155000  0.90714000  0.20602200  1
  Li  Li4  1  0.69923533  0.75736067  0.09653767  1
  Li  Li5  1  0.24263933  0.94187467  0.09653767  1
  Li  Li6  1  0.33333333  0.66666667  0.67647767  1
  Li  Li7  1  0.02225667  0.78178333  0.53935533  1
  Li  Li8  1  0.75952667  0.97774333  0.53935533  1
  Li  Li9  1  0.72479200  0.63409800  0.42987100  1
  Li  Li10  1  0.21821667  0.24047333  0.53935533  1
  Li  Li11  1  0.36590200  0.09069400  0.42987100  1
  Li  Li12  1  0.90930600  0.27520800  0.42987100  1
  Li  Li13  1  0.00000000  0.00000000  0.00981100  1
  Li  Li14  1  0.68892333  0.11511667  0.87268867  1
  Li  Li15  1  0.42619333  0.31107667  0.87268867  1
  Li  Li16  1  0.39145867  0.96743133  0.76320433  1
  Li  Li17  1  0.88488333  0.57380667  0.87268867  1
  Li  Li18  1  0.03256867  0.42402733  0.76320433  1
  Li  Li19  1  0.57597267  0.60854133  0.76320433  1
  Li  Li20  1  0.66666667  0.33333333  0.34314433  1
  Fe  Fe21  1  0.33333333  0.66666667  0.31294667  1
  Fe  Fe22  1  0.33333333  0.66666667  0.52719967  1
  Fe  Fe23  1  0.33333333  0.66666667  0.02152167  1
  Fe  Fe24  1  0.00000000  0.00000000  0.64628000  1
  Fe  Fe25  1  0.00000000  0.00000000  0.86053300  1
  Fe  Fe26  1  0.00000000  0.00000000  0.35485500  1
  Fe  Fe27  1  0.66666667  0.33333333  0.97961333  1
  Fe  Fe28  1  0.66666667  0.33333333  0.19386633  1
  Fe  Fe29  1  0.66666667  0.33333333  0.68818833  1
  Ni  Ni30  1  0.33333333  0.66666667  0.81526867  1
  Ni  Ni31  1  0.00000000  0.00000000  0.14860200  1
  Ni  Ni32  1  0.66666667  0.33333333  0.48193533  1
  P  P33  1  0.00289933  0.29701867  0.25001967  1
  P  P34  1  0.70298133  0.70588067  0.25001967  1
  P  P35  1  0.29411933  0.99710067  0.25001967  1
  P  P36  1  0.37058733  0.32886367  0.08236767  1
  P  P37  1  0.95827633  0.62941267  0.08236767  1
  P  P38  1  0.67113633  0.04172367  0.08236767  1
  P  P39  1  0.66956600  0.63035200  0.58335300  1
  P  P40  1  0.36964800  0.03921400  0.58335300  1
  P  P41  1  0.96078600  0.33043400  0.58335300  1
  P  P42  1  0.03725400  0.66219700  0.41570100  1
  P  P43  1  0.62494300  0.96274600  0.41570100  1
  P  P44  1  0.33780300  0.37505700  0.41570100  1
  P  P45  1  0.33623267  0.96368533  0.91668633  1
  P  P46  1  0.03631467  0.37254733  0.91668633  1
  P  P47  1  0.62745267  0.66376733  0.91668633  1
  P  P48  1  0.70392067  0.99553033  0.74903433  1
  P  P49  1  0.29160967  0.29607933  0.74903433  1
  P  P50  1  0.00446967  0.70839033  0.74903433  1
  O  O51  1  0.83413233  0.30975167  0.25322767  1
  O  O52  1  0.16337033  0.48846967  0.24744367  1
  O  O53  1  0.02761500  0.21966700  0.18767700  1
  O  O54  1  0.13525233  0.47749067  0.97541967  1
  O  O55  1  0.69024833  0.52438067  0.25322767  1
  O  O56  1  0.51153033  0.67490067  0.24744367  1
  O  O57  1  0.52250933  0.65776167  0.97541967  1
  O  O58  1  0.32509933  0.83662967  0.24744367  1
  O  O59  1  0.47411267  0.35613033  0.14547933  1
  O  O60  1  0.19800067  0.14829633  0.07997433  1
  O  O61  1  0.34223833  0.86474767  0.97541967  1
  O  O62  1  0.88201767  0.52588733  0.14547933  1
  O  O63  1  0.78033300  0.80794800  0.18767700  1
  O  O64  1  0.32790833  0.47307567  0.35806467  1
  O  O65  1  0.47561933  0.16586767  0.25322767  1
  O  O66  1  0.19205200  0.97238500  0.18767700  1
  O  O67  1  0.31472867  0.47124733  0.08381033  1
  O  O68  1  0.14516733  0.67209167  0.35806467  1
  O  O69  1  0.15651867  0.68527133  0.08381033  1
  O  O70  1  0.52692433  0.85483267  0.35806467  1
  O  O71  1  0.95029567  0.80199933  0.07997433  1
  O  O72  1  0.64386967  0.11798233  0.14547933  1
  O  O73  1  0.52875267  0.84348133  0.08381033  1
  O  O74  1  0.85170367  0.04970433  0.07997433  1
  O  O75  1  0.50079900  0.64308500  0.58656100  1
  O  O76  1  0.83003700  0.82180300  0.58077700  1
  O  O77  1  0.69428167  0.55300033  0.52101033  1
  O  O78  1  0.80191900  0.81082400  0.30875300  1
  O  O79  1  0.35691500  0.85771400  0.58656100  1
  O  O80  1  0.17819700  0.00823400  0.58077700  1
  O  O81  1  0.18917600  0.99109500  0.30875300  1
  O  O82  1  0.99176600  0.16996300  0.58077700  1
  O  O83  1  0.14077933  0.68946367  0.47881267  1
  O  O84  1  0.86466733  0.48162967  0.41330767  1
  O  O85  1  0.00890500  0.19808100  0.30875300  1
  O  O86  1  0.54868433  0.85922067  0.47881267  1
  O  O87  1  0.44699967  0.14128133  0.52101033  1
  O  O88  1  0.99457500  0.80640900  0.69139800  1
  O  O89  1  0.14228600  0.49920100  0.58656100  1
  O  O90  1  0.85871867  0.30571833  0.52101033  1
  O  O91  1  0.98139533  0.80458067  0.41714367  1
  O  O92  1  0.81183400  0.00542500  0.69139800  1
  O  O93  1  0.82318533  0.01860467  0.41714367  1
  O  O94  1  0.19359100  0.18816600  0.69139800  1
  O  O95  1  0.61696233  0.13533267  0.41330767  1
  O  O96  1  0.31053633  0.45131567  0.47881267  1
  O  O97  1  0.19541933  0.17681467  0.41714367  1
  O  O98  1  0.51837033  0.38303767  0.41330767  1
  O  O99  1  0.16746567  0.97641833  0.91989433  1
  O  O100  1  0.49670367  0.15513633  0.91411033  1
  O  O101  1  0.36094833  0.88633367  0.85434367  1
  O  O102  1  0.46858567  0.14415733  0.64208633  1
  O  O103  1  0.02358167  0.19104733  0.91989433  1
  O  O104  1  0.84486367  0.34156733  0.91411033  1
  O  O105  1  0.85584267  0.32442833  0.64208633  1
  O  O106  1  0.65843267  0.50329633  0.91411033  1
  O  O107  1  0.80744600  0.02279700  0.81214600  1
  O  O108  1  0.53133400  0.81496300  0.74664100  1
  O  O109  1  0.67557167  0.53141433  0.64208633  1
  O  O110  1  0.21535100  0.19255400  0.81214600  1
  O  O111  1  0.11366633  0.47461467  0.85434367  1
  O  O112  1  0.66124167  0.13974233  0.02473133  1
  O  O113  1  0.80895267  0.83253433  0.91989433  1
  O  O114  1  0.52538533  0.63905167  0.85434367  1
  O  O115  1  0.64806200  0.13791400  0.75047700  1
  O  O116  1  0.47850067  0.33875833  0.02473133  1
  O  O117  1  0.48985200  0.35193800  0.75047700  1
  O  O118  1  0.86025767  0.52149933  0.02473133  1
  O  O119  1  0.28362900  0.46866600  0.74664100  1
  O  O120  1  0.97720300  0.78464900  0.81214600  1
  O  O121  1  0.86208600  0.51014800  0.75047700  1
  O  O122  1  0.18503700  0.71637100  0.74664100  1
