# generated using pymatgen
data_Na3NdV2O8
_symmetry_space_group_name_H-M   'P 1'
_cell_length_a   29.56806400
_cell_length_b   5.64669000
_cell_length_c   14.38861677
_cell_angle_alpha   90.00000000
_cell_angle_beta   91.37709566
_cell_angle_gamma   90.00000000
_symmetry_Int_Tables_number   1
_chemical_formula_structural   Na3NdV2O8
_chemical_formula_sum   'Na36 Nd12 V24 O96'
_cell_volume   2401.65393712
_cell_formula_units_Z   12
loop_
 _symmetry_equiv_pos_site_id
 _symmetry_equiv_pos_as_xyz
  1  'x, y, z'
loop_
 _atom_site_type_symbol
 _atom_site_label
 _atom_site_symmetry_multiplicity
 _atom_site_fract_x
 _atom_site_fract_y
 _atom_site_fract_z
 _atom_site_occupancy
  Na  Na0  1  0.66884650  0.00910950  0.46882000  1
  Na  Na1  1  0.60030750  0.50137850  0.91368800  1
  Na  Na2  1  0.82018300  0.49181400  0.73267700  1
  Na  Na3  1  0.76793650  0.94493950  0.80982300  1
  Na  Na4  1  0.97594750  0.98916050  0.99693200  1
  Na  Na5  1  0.54085600  0.01895100  0.55986600  1
  Na  Na6  1  0.70025200  0.51563900  0.09118900  1
  Na  Na7  1  0.66884650  0.99089050  0.96882000  1
  Na  Na8  1  0.60030750  0.49862150  0.41368800  1
  Na  Na9  1  0.54085600  0.98104900  0.05986600  1
  Na  Na10  1  0.87620050  0.04971650  0.65091700  1
  Na  Na11  1  0.87620050  0.95028350  0.15091700  1
  Na  Na12  1  0.97594750  0.01083950  0.49693200  1
  Na  Na13  1  0.82018300  0.50818600  0.23267700  1
  Na  Na14  1  0.93897850  0.51541550  0.37839100  1
  Na  Na15  1  0.93897850  0.48458450  0.87839100  1
  Na  Na16  1  0.76793650  0.05506050  0.30982300  1
  Na  Na17  1  0.70025200  0.48436100  0.59118900  1
  Na  Na18  1  0.16884650  0.50910950  0.46882000  1
  Na  Na19  1  0.10030750  0.00137850  0.91368800  1
  Na  Na20  1  0.32018300  0.99181400  0.73267700  1
  Na  Na21  1  0.26793650  0.44493950  0.80982300  1
  Na  Na22  1  0.47594750  0.48916050  0.99693200  1
  Na  Na23  1  0.04085600  0.51895100  0.55986600  1
  Na  Na24  1  0.20025200  0.01563900  0.09118900  1
  Na  Na25  1  0.16884650  0.49089050  0.96882000  1
  Na  Na26  1  0.10030750  0.99862150  0.41368800  1
  Na  Na27  1  0.04085600  0.48104900  0.05986600  1
  Na  Na28  1  0.37620050  0.54971650  0.65091700  1
  Na  Na29  1  0.37620050  0.45028350  0.15091700  1
  Na  Na30  1  0.47594750  0.51083950  0.49693200  1
  Na  Na31  1  0.32018300  0.00818600  0.23267700  1
  Na  Na32  1  0.43897850  0.01541550  0.37839100  1
  Na  Na33  1  0.43897850  0.98458450  0.87839100  1
  Na  Na34  1  0.26793650  0.55506050  0.30982300  1
  Na  Na35  1  0.20025200  0.98436100  0.59118900  1
  Nd  Nd36  1  0.82102250  0.60344450  0.48590500  1
  Nd  Nd37  1  0.64512450  0.96518150  0.71865700  1
  Nd  Nd38  1  0.99927350  0.04303650  0.75099100  1
  Nd  Nd39  1  0.64512450  0.03481850  0.21865700  1
  Nd  Nd40  1  0.82102250  0.39655550  0.98590500  1
  Nd  Nd41  1  0.99927350  0.95696350  0.25099100  1
  Nd  Nd42  1  0.32102250  0.10344450  0.48590500  1
  Nd  Nd43  1  0.14512450  0.46518150  0.71865700  1
  Nd  Nd44  1  0.49927350  0.54303650  0.75099100  1
  Nd  Nd45  1  0.14512450  0.53481850  0.21865700  1
  Nd  Nd46  1  0.32102250  0.89655550  0.98590500  1
  Nd  Nd47  1  0.49927350  0.45696350  0.25099100  1
  V  V48  1  0.93327200  0.47028500  0.12888100  1
  V  V49  1  0.87939000  0.94893400  0.88315000  1
  V  V50  1  0.76400950  0.04636850  0.57928000  1
  V  V51  1  0.76400950  0.95363150  0.07928000  1
  V  V52  1  0.59319400  0.48649900  0.63359700  1
  V  V53  1  0.93327200  0.52971500  0.62888100  1
  V  V54  1  0.71069950  0.47109550  0.83931000  1
  V  V55  1  0.55204150  0.99318750  0.33927100  1
  V  V56  1  0.87939000  0.05106600  0.38315000  1
  V  V57  1  0.71069950  0.52890450  0.33931000  1
  V  V58  1  0.59319400  0.51350100  0.13359700  1
  V  V59  1  0.55204150  0.00681250  0.83927100  1
  V  V60  1  0.43327200  0.97028500  0.12888100  1
  V  V61  1  0.37939000  0.44893400  0.88315000  1
  V  V62  1  0.26400950  0.54636850  0.57928000  1
  V  V63  1  0.26400950  0.45363150  0.07928000  1
  V  V64  1  0.09319400  0.98649900  0.63359700  1
  V  V65  1  0.43327200  0.02971500  0.62888100  1
  V  V66  1  0.21069950  0.97109550  0.83931000  1
  V  V67  1  0.05204150  0.49318750  0.33927100  1
  V  V68  1  0.37939000  0.55106600  0.38315000  1
  V  V69  1  0.21069950  0.02890450  0.33931000  1
  V  V70  1  0.09319400  0.01350100  0.13359700  1
  V  V71  1  0.05204150  0.50681250  0.83927100  1
  O  O72  1  0.84481600  0.11787000  0.81098600  1
  O  O73  1  0.93577000  0.03508100  0.35243200  1
  O  O74  1  0.76857400  0.48211500  0.35942300  1
  O  O75  1  0.94775000  0.83159500  0.64899500  1
  O  O76  1  0.96225050  0.43343950  0.53346400  1
  O  O77  1  0.60914200  0.00955700  0.87053800  1
  O  O78  1  0.52350100  0.22694400  0.39178600  1
  O  O79  1  0.54965000  0.96323300  0.72182700  1
  O  O80  1  0.87589700  0.07994800  0.99204300  1
  O  O81  1  0.93577000  0.96491900  0.85243200  1
  O  O82  1  0.94964250  0.36241550  0.72546900  1
  O  O83  1  0.70752350  0.02687650  0.61059000  1
  O  O84  1  0.61725800  0.22266900  0.59590000  1
  O  O85  1  0.52616650  0.27404750  0.87169500  1
  O  O86  1  0.69953900  0.17325800  0.81181400  1
  O  O87  1  0.67993950  0.55639250  0.93350500  1
  O  O88  1  0.94775000  0.16840500  0.14899500  1
  O  O89  1  0.60914200  0.99044300  0.37053800  1
  O  O90  1  0.94964250  0.63758450  0.22546900  1
  O  O91  1  0.53599000  0.49766600  0.60101400  1
  O  O92  1  0.69529650  0.35808450  0.24211000  1
  O  O93  1  0.53599000  0.50233400  0.10101400  1
  O  O94  1  0.69953900  0.82674200  0.31181400  1
  O  O95  1  0.79891900  0.86414300  0.64589500  1
  O  O96  1  0.69529650  0.64191550  0.74211000  1
  O  O97  1  0.84481600  0.88213000  0.31098600  1
  O  O98  1  0.86323150  0.64773550  0.88508000  1
  O  O99  1  0.87532950  0.49124250  0.61057800  1
  O  O100  1  0.77970450  0.34791950  0.58600100  1
  O  O101  1  0.61725800  0.77733100  0.09590000  1
  O  O102  1  0.96225050  0.56656050  0.03346400  1
  O  O103  1  0.52616650  0.72595250  0.37169500  1
  O  O104  1  0.52350100  0.77305600  0.89178600  1
  O  O105  1  0.87532950  0.50875750  0.11057800  1
  O  O106  1  0.86323150  0.35226450  0.38508000  1
  O  O107  1  0.67993950  0.44360750  0.43350500  1
  O  O108  1  0.70752350  0.97312350  0.11059000  1
  O  O109  1  0.76909750  0.06880150  0.96733000  1
  O  O110  1  0.62310250  0.71909350  0.58522500  1
  O  O111  1  0.87589700  0.92005200  0.49204300  1
  O  O112  1  0.59513150  0.51171750  0.75252100  1
  O  O113  1  0.76909750  0.93119850  0.46733000  1
  O  O114  1  0.79891900  0.13585700  0.14589500  1
  O  O115  1  0.62310250  0.28090650  0.08522500  1
  O  O116  1  0.59513150  0.48828250  0.25252100  1
  O  O117  1  0.76857400  0.51788500  0.85942300  1
  O  O118  1  0.77970450  0.65208050  0.08600100  1
  O  O119  1  0.54965000  0.03676700  0.22182700  1
  O  O120  1  0.34481600  0.61787000  0.81098600  1
  O  O121  1  0.43577000  0.53508100  0.35243200  1
  O  O122  1  0.26857400  0.98211500  0.35942300  1
  O  O123  1  0.44775000  0.33159500  0.64899500  1
  O  O124  1  0.46225050  0.93343950  0.53346400  1
  O  O125  1  0.10914200  0.50955700  0.87053800  1
  O  O126  1  0.02350100  0.72694400  0.39178600  1
  O  O127  1  0.04965000  0.46323300  0.72182700  1
  O  O128  1  0.37589700  0.57994800  0.99204300  1
  O  O129  1  0.43577000  0.46491900  0.85243200  1
  O  O130  1  0.44964250  0.86241550  0.72546900  1
  O  O131  1  0.20752350  0.52687650  0.61059000  1
  O  O132  1  0.11725800  0.72266900  0.59590000  1
  O  O133  1  0.02616650  0.77404750  0.87169500  1
  O  O134  1  0.19953900  0.67325800  0.81181400  1
  O  O135  1  0.17993950  0.05639250  0.93350500  1
  O  O136  1  0.44775000  0.66840500  0.14899500  1
  O  O137  1  0.10914200  0.49044300  0.37053800  1
  O  O138  1  0.44964250  0.13758450  0.22546900  1
  O  O139  1  0.03599000  0.99766600  0.60101400  1
  O  O140  1  0.19529650  0.85808450  0.24211000  1
  O  O141  1  0.03599000  0.00233400  0.10101400  1
  O  O142  1  0.19953900  0.32674200  0.31181400  1
  O  O143  1  0.29891900  0.36414300  0.64589500  1
  O  O144  1  0.19529650  0.14191550  0.74211000  1
  O  O145  1  0.34481600  0.38213000  0.31098600  1
  O  O146  1  0.36323150  0.14773550  0.88508000  1
  O  O147  1  0.37532950  0.99124250  0.61057800  1
  O  O148  1  0.27970450  0.84791950  0.58600100  1
  O  O149  1  0.11725800  0.27733100  0.09590000  1
  O  O150  1  0.46225050  0.06656050  0.03346400  1
  O  O151  1  0.02616650  0.22595250  0.37169500  1
  O  O152  1  0.02350100  0.27305600  0.89178600  1
  O  O153  1  0.37532950  0.00875750  0.11057800  1
  O  O154  1  0.36323150  0.85226450  0.38508000  1
  O  O155  1  0.17993950  0.94360750  0.43350500  1
  O  O156  1  0.20752350  0.47312350  0.11059000  1
  O  O157  1  0.26909750  0.56880150  0.96733000  1
  O  O158  1  0.12310250  0.21909350  0.58522500  1
  O  O159  1  0.37589700  0.42005200  0.49204300  1
  O  O160  1  0.09513150  0.01171750  0.75252100  1
  O  O161  1  0.26909750  0.43119850  0.46733000  1
  O  O162  1  0.29891900  0.63585700  0.14589500  1
  O  O163  1  0.12310250  0.78090650  0.08522500  1
  O  O164  1  0.09513150  0.98828250  0.25252100  1
  O  O165  1  0.26857400  0.01788500  0.85942300  1
  O  O166  1  0.27970450  0.15208050  0.08600100  1
  O  O167  1  0.04965000  0.53676700  0.22182700  1
