# generated using pymatgen
data_Zr2N2O
_symmetry_space_group_name_H-M   'P 1'
_cell_length_a   8.86589466
_cell_length_b   8.87085900
_cell_length_c   8.87714677
_cell_angle_alpha   109.59069063
_cell_angle_beta   109.27898385
_cell_angle_gamma   109.40271592
_symmetry_Int_Tables_number   1
_chemical_formula_structural   Zr2N2O
_chemical_formula_sum   'Zr16 N16 O8'
_cell_volume   538.38405146
_cell_formula_units_Z   8
loop_
 _symmetry_equiv_pos_site_id
 _symmetry_equiv_pos_as_xyz
  1  'x, y, z'
loop_
 _atom_site_type_symbol
 _atom_site_label
 _atom_site_symmetry_multiplicity
 _atom_site_fract_x
 _atom_site_fract_y
 _atom_site_fract_z
 _atom_site_occupancy
  Zr  Zr0  1  0.23935800  0.78449800  0.96750800  1
  Zr  Zr1  1  0.46811200  0.25453600  0.77594300  1
  Zr  Zr2  1  0.00129100  0.00723700  0.98892100  1
  Zr  Zr3  1  0.97379500  0.24952900  0.27974900  1
  Zr  Zr4  1  0.50038300  0.99940500  0.50295300  1
  Zr  Zr5  1  0.49751800  0.49778900  0.99130600  1
  Zr  Zr6  1  0.74800500  0.71716400  0.54208800  1
  Zr  Zr7  1  0.28115300  0.03108500  0.26647700  1
  Zr  Zr8  1  0.71426700  0.96570500  0.74661100  1
  Zr  Zr9  1  0.79332000  0.53458400  0.25105600  1
  Zr  Zr10  1  0.21256600  0.45846200  0.74701700  1
  Zr  Zr11  1  0.25393300  0.28854000  0.46103800  1
  Zr  Zr12  1  0.00151100  0.51078200  0.49952500  1
  Zr  Zr13  1  0.53382600  0.75664800  0.21631100  1
  Zr  Zr14  1  0.02835300  0.74971900  0.71553600  1
  Zr  Zr15  1  0.75917300  0.21252800  0.02822400  1
  N  N16  1  0.99224800  0.76274800  0.96928100  1
  N  N17  1  0.04751300  0.53118800  0.22635100  1
  N  N18  1  0.74247300  0.97017100  0.48272600  1
  N  N19  1  0.50713600  0.03733000  0.73381300  1
  N  N20  1  0.23090100  0.26378700  0.22942800  1
  N  N21  1  0.49265700  0.95753400  0.27107200  1
  N  N22  1  0.72562000  0.45526600  0.53182700  1
  N  N23  1  0.76858400  0.73596400  0.77630100  1
  N  N24  1  0.23839500  0.22418600  0.72946400  1
  N  N25  1  0.26330000  0.03320700  0.51471300  1
  N  N26  1  0.03482900  0.77472600  0.45058500  1
  N  N27  1  0.46132800  0.51136300  0.76756700  1
  N  N28  1  0.77567300  0.01148700  0.95104100  1
  N  N29  1  0.95228700  0.46710100  0.77265400  1
  N  N30  1  0.27374500  0.54254700  0.46374700  1
  N  N31  1  0.00554500  0.23455900  0.03737400  1
  O  O32  1  0.72030000  0.27446400  0.26444200  1
  O  O33  1  0.45393100  0.72315200  0.01592000  1
  O  O34  1  0.75432700  0.76790700  0.27299300  1
  O  O35  1  0.53922800  0.48973400  0.23507400  1
  O  O36  1  0.96671400  0.22372200  0.54875600  1
  O  O37  1  0.22869900  0.98933800  0.04724600  1
  O  O38  1  0.27493200  0.72709700  0.73883000  1
  O  O39  1  0.54307100  0.27321200  0.98853300  1
