# generated using pymatgen
data_Li3AlFeO4
_symmetry_space_group_name_H-M   'P 1'
_cell_length_a   10.70232600
_cell_length_b   10.70232600
_cell_length_c   13.65128200
_cell_angle_alpha   90.00000000
_cell_angle_beta   90.00000000
_cell_angle_gamma   90.00000000
_symmetry_Int_Tables_number   1
_chemical_formula_structural   Li3AlFeO4
_chemical_formula_sum   'Li48 Al16 Fe16 O64'
_cell_volume   1563.61486171
_cell_formula_units_Z   16
loop_
 _symmetry_equiv_pos_site_id
 _symmetry_equiv_pos_as_xyz
  1  'x, y, z'
loop_
 _atom_site_type_symbol
 _atom_site_label
 _atom_site_symmetry_multiplicity
 _atom_site_fract_x
 _atom_site_fract_y
 _atom_site_fract_z
 _atom_site_occupancy
  Li  Li0  1  0.66639850  0.48960050  0.43971350  1
  Li  Li1  1  0.83360150  0.51039950  0.31028650  1
  Li  Li2  1  0.98960050  0.83360150  0.06028650  1
  Li  Li3  1  0.98960050  0.33360150  0.18971350  1
  Li  Li4  1  0.99151900  0.14105800  0.30085000  1
  Li  Li5  1  0.99478550  0.14564050  0.56980050  1
  Li  Li6  1  0.01039950  0.16639850  0.06028650  1
  Li  Li7  1  0.01039950  0.66639850  0.18971350  1
  Li  Li8  1  0.14105800  0.00848100  0.69915000  1
  Li  Li9  1  0.14564050  0.00521450  0.43019950  1
  Li  Li10  1  0.16639850  0.48960050  0.31028650  1
  Li  Li11  1  0.33360150  0.51039950  0.43971350  1
  Li  Li12  1  0.35435950  0.99478550  0.31980050  1
  Li  Li13  1  0.35435950  0.49478550  0.93019950  1
  Li  Li14  1  0.35894200  0.99151900  0.05085000  1
  Li  Li15  1  0.35894200  0.49151900  0.19915000  1
  Li  Li16  1  0.50521450  0.85435950  0.18019950  1
  Li  Li17  1  0.50521450  0.35435950  0.06980050  1
  Li  Li18  1  0.49151900  0.14105800  0.44915000  1
  Li  Li19  1  0.50848100  0.85894200  0.44915000  1
  Li  Li20  1  0.50848100  0.35894200  0.80085000  1
  Li  Li21  1  0.49478550  0.14564050  0.18019950  1
  Li  Li22  1  0.64105800  0.00848100  0.05085000  1
  Li  Li23  1  0.64564050  0.00521450  0.31980050  1
  Li  Li24  1  0.16639850  0.98960050  0.93971350  1
  Li  Li25  1  0.33360150  0.01039950  0.81028650  1
  Li  Li26  1  0.48960050  0.33360150  0.56028650  1
  Li  Li27  1  0.48960050  0.83360150  0.68971350  1
  Li  Li28  1  0.49151900  0.64105800  0.80085000  1
  Li  Li29  1  0.49478550  0.64564050  0.06980050  1
  Li  Li30  1  0.51039950  0.66639850  0.56028650  1
  Li  Li31  1  0.51039950  0.16639850  0.68971350  1
  Li  Li32  1  0.64105800  0.50848100  0.19915000  1
  Li  Li33  1  0.64564050  0.50521450  0.93019950  1
  Li  Li34  1  0.66639850  0.98960050  0.81028650  1
  Li  Li35  1  0.83360150  0.01039950  0.93971350  1
  Li  Li36  1  0.85435950  0.49478550  0.81980050  1
  Li  Li37  1  0.85435950  0.99478550  0.43019950  1
  Li  Li38  1  0.85894200  0.49151900  0.55085000  1
  Li  Li39  1  0.85894200  0.99151900  0.69915000  1
  Li  Li40  1  0.00521450  0.35435950  0.68019950  1
  Li  Li41  1  0.00521450  0.85435950  0.56980050  1
  Li  Li42  1  0.99151900  0.64105800  0.94915000  1
  Li  Li43  1  0.00848100  0.35894200  0.94915000  1
  Li  Li44  1  0.00848100  0.85894200  0.30085000  1
  Li  Li45  1  0.99478550  0.64564050  0.68019950  1
  Li  Li46  1  0.14105800  0.50848100  0.55085000  1
  Li  Li47  1  0.14564050  0.50521450  0.81980050  1
  Al  Al48  1  0.98329750  0.31826750  0.43072850  1
  Al  Al49  1  0.18173250  0.98329750  0.18072850  1
  Al  Al50  1  0.18173250  0.48329750  0.06927150  1
  Al  Al51  1  0.31826750  0.01670250  0.56927150  1
  Al  Al52  1  0.48329750  0.31826750  0.31927150  1
  Al  Al53  1  0.51670250  0.68173250  0.31927150  1
  Al  Al54  1  0.51670250  0.18173250  0.93072850  1
  Al  Al55  1  0.81826750  0.01670250  0.18072850  1
  Al  Al56  1  0.48329750  0.81826750  0.93072850  1
  Al  Al57  1  0.68173250  0.48329750  0.68072850  1
  Al  Al58  1  0.68173250  0.98329750  0.56927150  1
  Al  Al59  1  0.81826750  0.51670250  0.06927150  1
  Al  Al60  1  0.98329750  0.81826750  0.81927150  1
  Al  Al61  1  0.01670250  0.18173250  0.81927150  1
  Al  Al62  1  0.01670250  0.68173250  0.43072850  1
  Al  Al63  1  0.31826750  0.51670250  0.68072850  1
  Fe  Fe64  1  0.73676700  0.26176100  0.18856300  1
  Fe  Fe65  1  0.23823900  0.23676700  0.31143700  1
  Fe  Fe66  1  0.23823900  0.73676700  0.93856300  1
  Fe  Fe67  1  0.23676700  0.26176100  0.56143700  1
  Fe  Fe68  1  0.26323300  0.23823900  0.06143700  1
  Fe  Fe69  1  0.26176100  0.26323300  0.81143700  1
  Fe  Fe70  1  0.26176100  0.76323300  0.43856300  1
  Fe  Fe71  1  0.76323300  0.23823900  0.68856300  1
  Fe  Fe72  1  0.23676700  0.76176100  0.68856300  1
  Fe  Fe73  1  0.73823900  0.73676700  0.81143700  1
  Fe  Fe74  1  0.73823900  0.23676700  0.43856300  1
  Fe  Fe75  1  0.73676700  0.76176100  0.06143700  1
  Fe  Fe76  1  0.76323300  0.73823900  0.56143700  1
  Fe  Fe77  1  0.76176100  0.76323300  0.31143700  1
  Fe  Fe78  1  0.76176100  0.26323300  0.93856300  1
  Fe  Fe79  1  0.26323300  0.73823900  0.18856300  1
  O  O80  1  0.83938500  0.40334000  0.42836400  1
  O  O81  1  0.90334000  0.16061500  0.17836400  1
  O  O82  1  0.91905200  0.16227400  0.43580400  1
  O  O83  1  0.93476600  0.15818000  0.70651000  1
  O  O84  1  0.06523400  0.34182000  0.54349000  1
  O  O85  1  0.07235650  0.32711850  0.32088650  1
  O  O86  1  0.09666000  0.33938500  0.07163600  1
  O  O87  1  0.15818000  0.06523400  0.29349000  1
  O  O88  1  0.15818000  0.56523400  0.95651000  1
  O  O89  1  0.16061500  0.09666000  0.82163600  1
  O  O90  1  0.17288150  0.07235650  0.07088650  1
  O  O91  1  0.17288150  0.57235650  0.17911350  1
  O  O92  1  0.16227400  0.08094800  0.56419600  1
  O  O93  1  0.33772600  0.91905200  0.18580400  1
  O  O94  1  0.33772600  0.41905200  0.06419600  1
  O  O95  1  0.82711850  0.42764350  0.17911350  1
  O  O96  1  0.33938500  0.40334000  0.32163600  1
  O  O97  1  0.34182000  0.93476600  0.45651000  1
  O  O98  1  0.34182000  0.43476600  0.79349000  1
  O  O99  1  0.40334000  0.16061500  0.57163600  1
  O  O100  1  0.41905200  0.16227400  0.31419600  1
  O  O101  1  0.42764350  0.67288150  0.42911350  1
  O  O102  1  0.92764350  0.67288150  0.32088650  1
  O  O103  1  0.43476600  0.15818000  0.04349000  1
  O  O104  1  0.56523400  0.34182000  0.20651000  1
  O  O105  1  0.07235650  0.82711850  0.92911350  1
  O  O106  1  0.58094800  0.33772600  0.93580400  1
  O  O107  1  0.58094800  0.83772600  0.31419600  1
  O  O108  1  0.59666000  0.33938500  0.67836400  1
  O  O109  1  0.66061500  0.09666000  0.92836400  1
  O  O110  1  0.66227400  0.08094800  0.18580400  1
  O  O111  1  0.32711850  0.42764350  0.57088650  1
  O  O112  1  0.33938500  0.90334000  0.92836400  1
  O  O113  1  0.40334000  0.66061500  0.67836400  1
  O  O114  1  0.41905200  0.66227400  0.93580400  1
  O  O115  1  0.43476600  0.65818000  0.20651000  1
  O  O116  1  0.56523400  0.84182000  0.04349000  1
  O  O117  1  0.57235650  0.82711850  0.82088650  1
  O  O118  1  0.59666000  0.83938500  0.57163600  1
  O  O119  1  0.65818000  0.56523400  0.79349000  1
  O  O120  1  0.65818000  0.06523400  0.45651000  1
  O  O121  1  0.66061500  0.59666000  0.32163600  1
  O  O122  1  0.67288150  0.57235650  0.57088650  1
  O  O123  1  0.67288150  0.07235650  0.67911350  1
  O  O124  1  0.66227400  0.58094800  0.06419600  1
  O  O125  1  0.83772600  0.41905200  0.68580400  1
  O  O126  1  0.83772600  0.91905200  0.56419600  1
  O  O127  1  0.32711850  0.92764350  0.67911350  1
  O  O128  1  0.83938500  0.90334000  0.82163600  1
  O  O129  1  0.84182000  0.43476600  0.95651000  1
  O  O130  1  0.84182000  0.93476600  0.29349000  1
  O  O131  1  0.90334000  0.66061500  0.07163600  1
  O  O132  1  0.91905200  0.66227400  0.81419600  1
  O  O133  1  0.92764350  0.17288150  0.92911350  1
  O  O134  1  0.42764350  0.17288150  0.82088650  1
  O  O135  1  0.93476600  0.65818000  0.54349000  1
  O  O136  1  0.06523400  0.84182000  0.70651000  1
  O  O137  1  0.57235650  0.32711850  0.42911350  1
  O  O138  1  0.08094800  0.83772600  0.43580400  1
  O  O139  1  0.08094800  0.33772600  0.81419600  1
  O  O140  1  0.09666000  0.83938500  0.17836400  1
  O  O141  1  0.16061500  0.59666000  0.42836400  1
  O  O142  1  0.16227400  0.58094800  0.68580400  1
  O  O143  1  0.82711850  0.92764350  0.07088650  1
