# generated using pymatgen
data_V4OF11
_symmetry_space_group_name_H-M   'P 1'
_cell_length_a   5.24219567
_cell_length_b   5.45391984
_cell_length_c   9.11634718
_cell_angle_alpha   106.67793523
_cell_angle_beta   89.57596115
_cell_angle_gamma   118.35888642
_symmetry_Int_Tables_number   1
_chemical_formula_structural   V4OF11
_chemical_formula_sum   'V4 O1 F11'
_cell_volume   217.12832303
_cell_formula_units_Z   1
loop_
 _symmetry_equiv_pos_site_id
 _symmetry_equiv_pos_as_xyz
  1  'x, y, z'
loop_
 _atom_site_type_symbol
 _atom_site_label
 _atom_site_symmetry_multiplicity
 _atom_site_fract_x
 _atom_site_fract_y
 _atom_site_fract_z
 _atom_site_occupancy
  V  V0  1  0.24575564  0.75506524  0.75256080  1
  V  V1  1  0.49868651  0.50118263  0.50064247  1
  V  V2  1  0.75156567  0.24884714  0.24762493  1
  V  V3  1  0.00602811  0.99478690  0.98548872  1
  O  O4  1  0.07879570  0.91815006  0.84165701  1
  F  F5  1  0.07290753  0.32178567  0.42543468  1
  F  F6  1  0.01911374  0.37046827  0.87502143  1
  F  F7  1  0.47536657  0.12703732  0.62468930  1
  F  F8  1  0.57835353  0.82547184  0.92697751  1
  F  F9  1  0.57455493  0.42400749  0.32420592  1
  F  F10  1  0.42258339  0.57759740  0.67769412  1
  F  F11  1  0.42173343  0.17863179  0.07372286  1
  F  F12  1  0.52441193  0.87460947  0.37480220  1
  F  F13  1  0.97913052  0.63081118  0.12836167  1
  F  F14  1  0.92504925  0.07425985  0.16632625  1
  F  F15  1  0.92596353  0.67728776  0.57479012  1
