# generated using pymatgen
data_LiV2F9
_symmetry_space_group_name_H-M   'P 1'
_cell_length_a   8.80675000
_cell_length_b   5.12745200
_cell_length_c   14.43927460
_cell_angle_alpha   90.00000000
_cell_angle_beta   90.08688448
_cell_angle_gamma   90.00000000
_symmetry_Int_Tables_number   1
_chemical_formula_structural   LiV2F9
_chemical_formula_sum   'Li4 V8 F36'
_cell_volume   652.02184740
_cell_formula_units_Z   4
loop_
 _symmetry_equiv_pos_site_id
 _symmetry_equiv_pos_as_xyz
  1  'x, y, z'
loop_
 _atom_site_type_symbol
 _atom_site_label
 _atom_site_symmetry_multiplicity
 _atom_site_fract_x
 _atom_site_fract_y
 _atom_site_fract_z
 _atom_site_occupancy
  Li  Li0  1  0.33293650  0.99706650  0.50243500  1
  Li  Li1  1  0.33293650  0.00293350  0.00243500  1
  Li  Li2  1  0.83293650  0.49706650  0.50243500  1
  Li  Li3  1  0.83293650  0.50293350  0.00243500  1
  V  V4  1  0.00156300  0.00033200  0.65235200  1
  V  V5  1  0.99744300  0.00249500  0.85084500  1
  V  V6  1  0.99744300  0.99750500  0.35084500  1
  V  V7  1  0.00156300  0.99966800  0.15235200  1
  V  V8  1  0.50156300  0.50033200  0.65235200  1
  V  V9  1  0.49744300  0.50249500  0.85084500  1
  V  V10  1  0.49744300  0.49750500  0.35084500  1
  V  V11  1  0.50156300  0.49966800  0.15235200  1
  F  F12  1  0.48161900  0.19650300  0.41271500  1
  F  F13  1  0.35433350  0.33028250  0.91701300  1
  F  F14  1  0.48161900  0.80349700  0.91271500  1
  F  F15  1  0.35433350  0.66971750  0.41701300  1
  F  F16  1  0.85968950  0.12591650  0.74979700  1
  F  F17  1  0.15937750  0.13932050  0.41272900  1
  F  F18  1  0.35542000  0.67636800  0.09053100  1
  F  F19  1  0.15937750  0.86067950  0.91272900  1
  F  F20  1  0.85968950  0.87408350  0.24979700  1
  F  F21  1  0.35542000  0.32363200  0.59053100  1
  F  F22  1  0.63368400  0.35502400  0.25317500  1
  F  F23  1  0.15876150  0.87022950  0.58476600  1
  F  F24  1  0.49171400  0.19306500  0.08935700  1
  F  F25  1  0.50580850  0.23032950  0.75129800  1
  F  F26  1  0.15876150  0.12977050  0.08476600  1
  F  F27  1  0.63368400  0.64497600  0.75317500  1
  F  F28  1  0.49171400  0.80693500  0.58935700  1
  F  F29  1  0.50580850  0.76967050  0.25129800  1
  F  F30  1  0.98161900  0.69650300  0.41271500  1
  F  F31  1  0.85433350  0.83028250  0.91701300  1
  F  F32  1  0.98161900  0.30349700  0.91271500  1
  F  F33  1  0.85433350  0.16971750  0.41701300  1
  F  F34  1  0.35968950  0.62591650  0.74979700  1
  F  F35  1  0.65937750  0.63932050  0.41272900  1
  F  F36  1  0.85542000  0.17636800  0.09053100  1
  F  F37  1  0.65937750  0.36067950  0.91272900  1
  F  F38  1  0.35968950  0.37408350  0.24979700  1
  F  F39  1  0.85542000  0.82363200  0.59053100  1
  F  F40  1  0.13368400  0.85502400  0.25317500  1
  F  F41  1  0.65876150  0.37022950  0.58476600  1
  F  F42  1  0.99171400  0.69306500  0.08935700  1
  F  F43  1  0.00580850  0.73032950  0.75129800  1
  F  F44  1  0.65876150  0.62977050  0.08476600  1
  F  F45  1  0.13368400  0.14497600  0.75317500  1
  F  F46  1  0.99171400  0.30693500  0.58935700  1
  F  F47  1  0.00580850  0.26967050  0.25129800  1
