# generated using pymatgen
data_Li6Mn5Fe(BO3)6
_symmetry_space_group_name_H-M   'P 1'
_cell_length_a   16.51897600
_cell_length_b   6.37216000
_cell_length_c   8.27335546
_cell_angle_alpha   90.00000000
_cell_angle_beta   119.93132633
_cell_angle_gamma   90.00000000
_symmetry_Int_Tables_number   1
_chemical_formula_structural   Li6Mn5Fe(BO3)6
_chemical_formula_sum   'Li12 Mn10 Fe2 B12 O36'
_cell_volume   754.71368760
_cell_formula_units_Z   2
loop_
 _symmetry_equiv_pos_site_id
 _symmetry_equiv_pos_as_xyz
  1  'x, y, z'
loop_
 _atom_site_type_symbol
 _atom_site_label
 _atom_site_symmetry_multiplicity
 _atom_site_fract_x
 _atom_site_fract_y
 _atom_site_fract_z
 _atom_site_occupancy
  Li  Li0  1  0.49089400  0.25047900  0.69840100  1
  Li  Li1  1  0.49089400  0.74952100  0.69840100  1
  Li  Li2  1  0.15057350  0.74972250  0.28358200  1
  Li  Li3  1  0.15057350  0.25027750  0.28358200  1
  Li  Li4  1  0.35792850  0.25047550  0.01688700  1
  Li  Li5  1  0.35792850  0.74952450  0.01688700  1
  Li  Li6  1  0.99089400  0.75047900  0.69840100  1
  Li  Li7  1  0.99089400  0.24952100  0.69840100  1
  Li  Li8  1  0.65057350  0.24972250  0.28358200  1
  Li  Li9  1  0.65057350  0.75027750  0.28358200  1
  Li  Li10  1  0.85792850  0.75047550  0.01688700  1
  Li  Li11  1  0.85792850  0.24952450  0.01688700  1
  Mn  Mn12  1  0.17999800  0.00000000  0.98800700  1
  Mn  Mn13  1  0.17964400  0.50000000  0.98779100  1
  Mn  Mn14  1  0.00589600  0.50000000  0.37097400  1
  Mn  Mn15  1  0.00626100  0.00000000  0.37221700  1
  Mn  Mn16  1  0.31446400  0.00000000  0.64122900  1
  Mn  Mn17  1  0.67999800  0.50000000  0.98800700  1
  Mn  Mn18  1  0.67964400  0.00000000  0.98779100  1
  Mn  Mn19  1  0.50589600  0.00000000  0.37097400  1
  Mn  Mn20  1  0.50626100  0.50000000  0.37221700  1
  Mn  Mn21  1  0.81446400  0.50000000  0.64122900  1
  Fe  Fe22  1  0.31580400  0.50000000  0.63972500  1
  Fe  Fe23  1  0.81580400  0.00000000  0.63972500  1
  B  B24  1  0.33338000  0.74815400  0.33422800  1
  B  B25  1  0.33338000  0.25184600  0.33422800  1
  B  B26  1  0.16730100  0.74891200  0.66650500  1
  B  B27  1  0.16730100  0.25108800  0.66650500  1
  B  B28  1  0.49891700  0.50000000  0.99979200  1
  B  B29  1  0.49998800  0.00000000  0.99996900  1
  B  B30  1  0.83338000  0.24815400  0.33422800  1
  B  B31  1  0.83338000  0.75184600  0.33422800  1
  B  B32  1  0.66730100  0.24891200  0.66650500  1
  B  B33  1  0.66730100  0.75108800  0.66650500  1
  B  B34  1  0.99891700  0.00000000  0.99979200  1
  B  B35  1  0.99998800  0.50000000  0.99996900  1
  O  O36  1  0.46130600  0.00000000  0.80661900  1
  O  O37  1  0.45812800  0.50000000  0.80542900  1
  O  O38  1  0.29037400  0.25402900  0.44212200  1
  O  O39  1  0.29037400  0.74597100  0.44212200  1
  O  O40  1  0.09582600  0.00000000  0.11289900  1
  O  O41  1  0.09679600  0.50000000  0.11574000  1
  O  O42  1  0.43016650  0.75012650  0.41988000  1
  O  O43  1  0.43016650  0.24987350  0.41988000  1
  O  O44  1  0.27960200  0.25000900  0.14081100  1
  O  O45  1  0.27960200  0.74999100  0.14081100  1
  O  O46  1  0.12574450  0.75049450  0.77764200  1
  O  O47  1  0.12574450  0.24950550  0.77764200  1
  O  O48  1  0.44195500  0.00000000  0.07762300  1
  O  O49  1  0.44202200  0.50000000  0.07945400  1
  O  O50  1  0.26413650  0.74761450  0.74831300  1
  O  O51  1  0.26413650  0.25238550  0.74831300  1
  O  O52  1  0.11140550  0.74975750  0.47289700  1
  O  O53  1  0.11140550  0.25024250  0.47289700  1
  O  O54  1  0.96130600  0.50000000  0.80661900  1
  O  O55  1  0.95812800  0.00000000  0.80542900  1
  O  O56  1  0.79037400  0.75402900  0.44212200  1
  O  O57  1  0.79037400  0.24597100  0.44212200  1
  O  O58  1  0.59582600  0.50000000  0.11289900  1
  O  O59  1  0.59679600  0.00000000  0.11574000  1
  O  O60  1  0.93016650  0.25012650  0.41988000  1
  O  O61  1  0.93016650  0.74987350  0.41988000  1
  O  O62  1  0.77960200  0.75000900  0.14081100  1
  O  O63  1  0.77960200  0.24999100  0.14081100  1
  O  O64  1  0.62574450  0.25049450  0.77764200  1
  O  O65  1  0.62574450  0.74950550  0.77764200  1
  O  O66  1  0.94195500  0.50000000  0.07762300  1
  O  O67  1  0.94202200  0.00000000  0.07945400  1
  O  O68  1  0.76413650  0.24761450  0.74831300  1
  O  O69  1  0.76413650  0.75238550  0.74831300  1
  O  O70  1  0.61140550  0.24975750  0.47289700  1
  O  O71  1  0.61140550  0.75024250  0.47289700  1
