# generated using pymatgen
data_Li2FeF4
_symmetry_space_group_name_H-M   'P 1'
_cell_length_a   14.37698143
_cell_length_b   14.37698143
_cell_length_c   9.63739888
_cell_angle_alpha   90.00000000
_cell_angle_beta   90.00000000
_cell_angle_gamma   120.00000000
_symmetry_Int_Tables_number   1
_chemical_formula_structural   Li2FeF4
_chemical_formula_sum   'Li36 Fe18 F72'
_cell_volume   1725.14613462
_cell_formula_units_Z   18
loop_
 _symmetry_equiv_pos_site_id
 _symmetry_equiv_pos_as_xyz
  1  'x, y, z'
loop_
 _atom_site_type_symbol
 _atom_site_label
 _atom_site_symmetry_multiplicity
 _atom_site_fract_x
 _atom_site_fract_y
 _atom_site_fract_z
 _atom_site_occupancy
  Li  Li0  1  0.12441667  0.49707033  0.57847733  1
  Li  Li1  1  0.62734633  0.12441667  0.42152267  1
  Li  Li2  1  0.04621700  0.22721500  0.58855400  1
  Li  Li3  1  0.49707033  0.37265367  0.42152267  1
  Li  Li4  1  0.81900200  0.04621700  0.41144600  1
  Li  Li5  1  0.22721500  0.18099800  0.41144600  1
  Li  Li6  1  0.77278500  0.81900200  0.58855400  1
  Li  Li7  1  0.18099800  0.95378300  0.58855400  1
  Li  Li8  1  0.50292967  0.62734633  0.57847733  1
  Li  Li9  1  0.95378300  0.77278500  0.41144600  1
  Li  Li10  1  0.37265367  0.87558333  0.57847733  1
  Li  Li11  1  0.87558333  0.50292967  0.42152267  1
  Li  Li12  1  0.79108333  0.83040367  0.91181067  1
  Li  Li13  1  0.29401300  0.45775000  0.75485600  1
  Li  Li14  1  0.71288367  0.56054833  0.92188733  1
  Li  Li15  1  0.16373700  0.70598700  0.75485600  1
  Li  Li16  1  0.48566867  0.37955033  0.74477933  1
  Li  Li17  1  0.89388167  0.51433133  0.74477933  1
  Li  Li18  1  0.43945167  0.15233533  0.92188733  1
  Li  Li19  1  0.84766467  0.28711633  0.92188733  1
  Li  Li20  1  0.16959633  0.96067967  0.91181067  1
  Li  Li21  1  0.62044967  0.10611833  0.74477933  1
  Li  Li22  1  0.03932033  0.20891667  0.91181067  1
  Li  Li23  1  0.54225000  0.83626300  0.75485600  1
  Li  Li24  1  0.45775000  0.16373700  0.24514400  1
  Li  Li25  1  0.96067967  0.79108333  0.08818933  1
  Li  Li26  1  0.37955033  0.89388167  0.25522067  1
  Li  Li27  1  0.83040367  0.03932033  0.08818933  1
  Li  Li28  1  0.15233533  0.71288367  0.07811267  1
  Li  Li29  1  0.56054833  0.84766467  0.07811267  1
  Li  Li30  1  0.10611833  0.48566867  0.25522067  1
  Li  Li31  1  0.51433133  0.62044967  0.25522067  1
  Li  Li32  1  0.83626300  0.29401300  0.24514400  1
  Li  Li33  1  0.28711633  0.43945167  0.07811267  1
  Li  Li34  1  0.70598700  0.54225000  0.24514400  1
  Li  Li35  1  0.20891667  0.16959633  0.08818933  1
  Fe  Fe36  1  0.86847933  0.28580667  0.57678967  1
  Fe  Fe37  1  0.28580667  0.41732733  0.42321033  1
  Fe  Fe38  1  0.58267267  0.86847933  0.42321033  1
  Fe  Fe39  1  0.41732733  0.13152067  0.57678967  1
  Fe  Fe40  1  0.71419333  0.58267267  0.57678967  1
  Fe  Fe41  1  0.13152067  0.71419333  0.42321033  1
  Fe  Fe42  1  0.53514600  0.61914000  0.91012300  1
  Fe  Fe43  1  0.95247333  0.75066067  0.75654367  1
  Fe  Fe44  1  0.24933933  0.20181267  0.75654367  1
  Fe  Fe45  1  0.08399400  0.46485400  0.91012300  1
  Fe  Fe46  1  0.38086000  0.91600600  0.91012300  1
  Fe  Fe47  1  0.79818733  0.04752667  0.75654367  1
  Fe  Fe48  1  0.20181267  0.95247333  0.24345633  1
  Fe  Fe49  1  0.61914000  0.08399400  0.08987700  1
  Fe  Fe50  1  0.91600600  0.53514600  0.08987700  1
  Fe  Fe51  1  0.75066067  0.79818733  0.24345633  1
  Fe  Fe52  1  0.04752667  0.24933933  0.24345633  1
  Fe  Fe53  1  0.46485400  0.38086000  0.08987700  1
  F  F54  1  0.77027867  0.23995933  0.42009433  1
  F  F55  1  0.02262367  0.34658233  0.60727633  1
  F  F56  1  0.23995933  0.46968067  0.57990567  1
  F  F57  1  0.34658233  0.32395867  0.39272367  1
  F  F58  1  0.12823600  0.24240100  0.42124900  1
  F  F59  1  0.11261400  0.21418100  0.74653600  1
  F  F60  1  0.89843300  0.11261400  0.25346400  1
  F  F61  1  0.67604133  0.02262367  0.39272367  1
  F  F62  1  0.88583500  0.12823600  0.57875100  1
  F  F63  1  0.24240100  0.11416500  0.57875100  1
  F  F64  1  0.53031933  0.77027867  0.57990567  1
  F  F65  1  0.21418100  0.10156700  0.25346400  1
  F  F66  1  0.78581900  0.89843300  0.74653600  1
  F  F67  1  0.46968067  0.22972133  0.42009433  1
  F  F68  1  0.75759900  0.88583500  0.42124900  1
  F  F69  1  0.11416500  0.87176400  0.42124900  1
  F  F70  1  0.32395867  0.97737633  0.60727633  1
  F  F71  1  0.10156700  0.88738600  0.74653600  1
  F  F72  1  0.88738600  0.78581900  0.25346400  1
  F  F73  1  0.87176400  0.75759900  0.57875100  1
  F  F74  1  0.65341767  0.67604133  0.60727633  1
  F  F75  1  0.76004067  0.53031933  0.42009433  1
  F  F76  1  0.97737633  0.65341767  0.39272367  1
  F  F77  1  0.22972133  0.76004067  0.57990567  1
  F  F78  1  0.43694533  0.57329267  0.75342767  1
  F  F79  1  0.68929033  0.67991567  0.94060967  1
  F  F80  1  0.90662600  0.80301400  0.91323900  1
  F  F81  1  0.01324900  0.65729200  0.72605700  1
  F  F82  1  0.79490267  0.57573433  0.75458233  1
  F  F83  1  0.77928067  0.54751433  0.07986933  1
  F  F84  1  0.56509967  0.44594733  0.58679733  1
  F  F85  1  0.34270800  0.35595700  0.72605700  1
  F  F86  1  0.55250167  0.46156933  0.91208433  1
  F  F87  1  0.90906767  0.44749833  0.91208433  1
  F  F88  1  0.19698600  0.10361200  0.91323900  1
  F  F89  1  0.88084767  0.43490033  0.58679733  1
  F  F90  1  0.45248567  0.23176633  0.07986933  1
  F  F91  1  0.13634733  0.56305467  0.75342767  1
  F  F92  1  0.42426567  0.21916833  0.75458233  1
  F  F93  1  0.78083167  0.20509733  0.75458233  1
  F  F94  1  0.99062533  0.31070967  0.94060967  1
  F  F95  1  0.76823367  0.22071933  0.07986933  1
  F  F96  1  0.55405267  0.11915233  0.58679733  1
  F  F97  1  0.53843067  0.09093233  0.91208433  1
  F  F98  1  0.32008433  0.00937467  0.94060967  1
  F  F99  1  0.42670733  0.86365267  0.75342767  1
  F  F100  1  0.64404300  0.98675100  0.72605700  1
  F  F101  1  0.89638800  0.09337400  0.91323900  1
  F  F102  1  0.10361200  0.90662600  0.08676100  1
  F  F103  1  0.35595700  0.01324900  0.27394300  1
  F  F104  1  0.57329267  0.13634733  0.24657233  1
  F  F105  1  0.67991567  0.99062533  0.05939033  1
  F  F106  1  0.46156933  0.90906767  0.08791567  1
  F  F107  1  0.44594733  0.88084767  0.41320267  1
  F  F108  1  0.23176633  0.77928067  0.92013067  1
  F  F109  1  0.00937467  0.68929033  0.05939033  1
  F  F110  1  0.21916833  0.79490267  0.24541767  1
  F  F111  1  0.57573433  0.78083167  0.24541767  1
  F  F112  1  0.86365267  0.43694533  0.24657233  1
  F  F113  1  0.54751433  0.76823367  0.92013067  1
  F  F114  1  0.11915233  0.56509967  0.41320267  1
  F  F115  1  0.80301400  0.89638800  0.08676100  1
  F  F116  1  0.09093233  0.55250167  0.08791567  1
  F  F117  1  0.44749833  0.53843067  0.08791567  1
  F  F118  1  0.65729200  0.64404300  0.27394300  1
  F  F119  1  0.43490033  0.55405267  0.41320267  1
  F  F120  1  0.22071933  0.45248567  0.92013067  1
  F  F121  1  0.20509733  0.42426567  0.24541767  1
  F  F122  1  0.98675100  0.34270800  0.27394300  1
  F  F123  1  0.09337400  0.19698600  0.08676100  1
  F  F124  1  0.31070967  0.32008433  0.05939033  1
  F  F125  1  0.56305467  0.42670733  0.24657233  1
