# generated using pymatgen
data_La2Ga4O9
_symmetry_space_group_name_H-M   'P 1'
_cell_length_a   5.97288600
_cell_length_b   7.80302900
_cell_length_c   8.77391500
_cell_angle_alpha   90.00000000
_cell_angle_beta   90.00000000
_cell_angle_gamma   90.00000000
_symmetry_Int_Tables_number   1
_chemical_formula_structural   La2Ga4O9
_chemical_formula_sum   'La4 Ga8 O18'
_cell_volume   408.92237028
_cell_formula_units_Z   2
loop_
 _symmetry_equiv_pos_site_id
 _symmetry_equiv_pos_as_xyz
  1  'x, y, z'
loop_
 _atom_site_type_symbol
 _atom_site_label
 _atom_site_symmetry_multiplicity
 _atom_site_fract_x
 _atom_site_fract_y
 _atom_site_fract_z
 _atom_site_occupancy
  La  La0  1  0.00000000  0.15446000  0.18488000  1
  La  La1  1  0.00000000  0.34554000  0.68488000  1
  La  La2  1  0.00000000  0.65446000  0.31512000  1
  La  La3  1  0.00000000  0.84554000  0.81512000  1
  Ga  Ga4  1  0.25637200  0.00000000  0.50000000  1
  Ga  Ga5  1  0.74362800  0.00000000  0.50000000  1
  Ga  Ga6  1  0.50000000  0.13861500  0.83369400  1
  Ga  Ga7  1  0.50000000  0.36138500  0.33369400  1
  Ga  Ga8  1  0.25637200  0.50000000  0.00000000  1
  Ga  Ga9  1  0.74362800  0.50000000  0.00000000  1
  Ga  Ga10  1  0.50000000  0.63861500  0.66630600  1
  Ga  Ga11  1  0.50000000  0.86138500  0.16630600  1
  O  O12  1  0.50000000  0.00000000  0.00000000  1
  O  O13  1  0.23781500  0.10215600  0.72158600  1
  O  O14  1  0.76218500  0.10215600  0.72158600  1
  O  O15  1  0.50000000  0.14334700  0.42223000  1
  O  O16  1  0.00000000  0.16328100  0.45146100  1
  O  O17  1  0.00000000  0.33671900  0.95146100  1
  O  O18  1  0.50000000  0.35665300  0.92223000  1
  O  O19  1  0.23781500  0.39784400  0.22158600  1
  O  O20  1  0.76218500  0.39784400  0.22158600  1
  O  O21  1  0.50000000  0.50000000  0.50000000  1
  O  O22  1  0.23781500  0.60215600  0.77841400  1
  O  O23  1  0.76218500  0.60215600  0.77841400  1
  O  O24  1  0.50000000  0.64334700  0.07777000  1
  O  O25  1  0.00000000  0.66328100  0.04853900  1
  O  O26  1  0.00000000  0.83671900  0.54853900  1
  O  O27  1  0.50000000  0.85665300  0.57777000  1
  O  O28  1  0.23781500  0.89784400  0.27841400  1
  O  O29  1  0.76218500  0.89784400  0.27841400  1
