# generated using pymatgen
data_Li2V3Si3O10
_symmetry_space_group_name_H-M   'P 1'
_cell_length_a   15.83099600
_cell_length_b   4.86611000
_cell_length_c   10.61678525
_cell_angle_alpha   90.00000000
_cell_angle_beta   92.73350771
_cell_angle_gamma   90.00000000
_symmetry_Int_Tables_number   1
_chemical_formula_structural   Li2V3Si3O10
_chemical_formula_sum   'Li8 V12 Si12 O40'
_cell_volume   816.93735163
_cell_formula_units_Z   4
loop_
 _symmetry_equiv_pos_site_id
 _symmetry_equiv_pos_as_xyz
  1  'x, y, z'
loop_
 _atom_site_type_symbol
 _atom_site_label
 _atom_site_symmetry_multiplicity
 _atom_site_fract_x
 _atom_site_fract_y
 _atom_site_fract_z
 _atom_site_occupancy
  Li  Li0  1  0.55803550  0.30732150  0.97592800  1
  Li  Li1  1  0.55803550  0.69267850  0.47592800  1
  Li  Li2  1  0.94196450  0.80732150  0.52407200  1
  Li  Li3  1  0.94196450  0.19267850  0.02407200  1
  Li  Li4  1  0.05803550  0.80732150  0.97592800  1
  Li  Li5  1  0.05803550  0.19267850  0.47592800  1
  Li  Li6  1  0.44196450  0.30732150  0.52407200  1
  Li  Li7  1  0.44196450  0.69267850  0.02407200  1
  V  V8  1  0.65062500  0.26196000  0.71327900  1
  V  V9  1  0.65062500  0.73804000  0.21327900  1
  V  V10  1  0.75000000  0.25000000  0.00000000  1
  V  V11  1  0.75000000  0.75000000  0.50000000  1
  V  V12  1  0.84937500  0.76196000  0.78672100  1
  V  V13  1  0.84937500  0.23804000  0.28672100  1
  V  V14  1  0.15062500  0.76196000  0.71327900  1
  V  V15  1  0.15062500  0.23804000  0.21327900  1
  V  V16  1  0.25000000  0.75000000  0.00000000  1
  V  V17  1  0.25000000  0.25000000  0.50000000  1
  V  V18  1  0.34937500  0.26196000  0.78672100  1
  V  V19  1  0.34937500  0.73804000  0.28672100  1
  Si  Si20  1  0.65534950  0.81656850  0.90040500  1
  Si  Si21  1  0.65534950  0.18343150  0.40040500  1
  Si  Si22  1  0.84465050  0.31656850  0.59959500  1
  Si  Si23  1  0.84465050  0.68343150  0.09959500  1
  Si  Si24  1  0.00000000  0.19934100  0.75000000  1
  Si  Si25  1  0.00000000  0.80065900  0.25000000  1
  Si  Si26  1  0.15534950  0.31656850  0.90040500  1
  Si  Si27  1  0.15534950  0.68343150  0.40040500  1
  Si  Si28  1  0.34465050  0.81656850  0.59959500  1
  Si  Si29  1  0.34465050  0.18343150  0.09959500  1
  Si  Si30  1  0.50000000  0.69934100  0.75000000  1
  Si  Si31  1  0.50000000  0.30065900  0.25000000  1
  O  O32  1  0.54060150  0.51954250  0.63868500  1
  O  O33  1  0.57047850  0.92823050  0.81247200  1
  O  O34  1  0.54060150  0.48045750  0.13868500  1
  O  O35  1  0.57047850  0.07176950  0.31247200  1
  O  O36  1  0.65365800  0.48293900  0.89544300  1
  O  O37  1  0.64764100  0.03999000  0.53855500  1
  O  O38  1  0.65365800  0.51706100  0.39544300  1
  O  O39  1  0.64764100  0.96001000  0.03855500  1
  O  O40  1  0.73488350  0.97488450  0.83550700  1
  O  O41  1  0.73488350  0.02511550  0.33550700  1
  O  O42  1  0.76511650  0.47488450  0.66449300  1
  O  O43  1  0.76511650  0.52511550  0.16449300  1
  O  O44  1  0.85235900  0.53999000  0.96144500  1
  O  O45  1  0.84634200  0.98293900  0.60455700  1
  O  O46  1  0.85235900  0.46001000  0.46144500  1
  O  O47  1  0.84634200  0.01706100  0.10455700  1
  O  O48  1  0.92952150  0.42823050  0.68752800  1
  O  O49  1  0.95939850  0.01954250  0.86131500  1
  O  O50  1  0.92952150  0.57176950  0.18752800  1
  O  O51  1  0.95939850  0.98045750  0.36131500  1
  O  O52  1  0.04060150  0.01954250  0.63868500  1
  O  O53  1  0.07047850  0.42823050  0.81247200  1
  O  O54  1  0.04060150  0.98045750  0.13868500  1
  O  O55  1  0.07047850  0.57176950  0.31247200  1
  O  O56  1  0.15365800  0.98293900  0.89544300  1
  O  O57  1  0.14764100  0.53999000  0.53855500  1
  O  O58  1  0.15365800  0.01706100  0.39544300  1
  O  O59  1  0.14764100  0.46001000  0.03855500  1
  O  O60  1  0.23488350  0.47488450  0.83550700  1
  O  O61  1  0.23488350  0.52511550  0.33550700  1
  O  O62  1  0.26511650  0.97488450  0.66449300  1
  O  O63  1  0.26511650  0.02511550  0.16449300  1
  O  O64  1  0.35235900  0.03999000  0.96144500  1
  O  O65  1  0.34634200  0.48293900  0.60455700  1
  O  O66  1  0.35235900  0.96001000  0.46144500  1
  O  O67  1  0.34634200  0.51706100  0.10455700  1
  O  O68  1  0.42952150  0.92823050  0.68752800  1
  O  O69  1  0.45939850  0.51954250  0.86131500  1
  O  O70  1  0.42952150  0.07176950  0.18752800  1
  O  O71  1  0.45939850  0.48045750  0.36131500  1
