# generated using pymatgen
data_Sn2(SO4)3
_symmetry_space_group_name_H-M   'P 1'
_cell_length_a   8.66501568
_cell_length_b   8.66501568
_cell_length_c   24.64530686
_cell_angle_alpha   90.00000000
_cell_angle_beta   90.00000000
_cell_angle_gamma   120.00000000
_symmetry_Int_Tables_number   1
_chemical_formula_structural   Sn2(SO4)3
_chemical_formula_sum   'Sn12 S18 O72'
_cell_volume   1602.52040155
_cell_formula_units_Z   6
loop_
 _symmetry_equiv_pos_site_id
 _symmetry_equiv_pos_as_xyz
  1  'x, y, z'
loop_
 _atom_site_type_symbol
 _atom_site_label
 _atom_site_symmetry_multiplicity
 _atom_site_fract_x
 _atom_site_fract_y
 _atom_site_fract_z
 _atom_site_occupancy
  Sn  Sn0  1  0.66666667  0.33333333  0.19223333  1
  Sn  Sn1  1  0.33333333  0.66666667  0.32232267  1
  Sn  Sn2  1  0.33333333  0.66666667  0.01101067  1
  Sn  Sn3  1  0.00000000  0.00000000  0.14110000  1
  Sn  Sn4  1  0.33333333  0.66666667  0.52556667  1
  Sn  Sn5  1  0.00000000  0.00000000  0.65565600  1
  Sn  Sn6  1  0.00000000  0.00000000  0.34434400  1
  Sn  Sn7  1  0.66666667  0.33333333  0.47443333  1
  Sn  Sn8  1  0.00000000  0.00000000  0.85890000  1
  Sn  Sn9  1  0.66666667  0.33333333  0.98898933  1
  Sn  Sn10  1  0.66666667  0.33333333  0.67767733  1
  Sn  Sn11  1  0.33333333  0.66666667  0.80776667  1
  S  S12  1  0.29709833  0.98791067  0.25661767  1
  S  S13  1  0.65457733  0.02414567  0.07671567  1
  S  S14  1  0.97585433  0.63043167  0.07671567  1
  S  S15  1  0.69081233  0.70290167  0.25661767  1
  S  S16  1  0.01208933  0.30918767  0.25661767  1
  S  S17  1  0.36956833  0.34542267  0.07671567  1
  S  S18  1  0.96376500  0.32124400  0.58995100  1
  S  S19  1  0.32124400  0.35747900  0.41004900  1
  S  S20  1  0.64252100  0.96376500  0.41004900  1
  S  S21  1  0.35747900  0.03623500  0.58995100  1
  S  S22  1  0.67875600  0.64252100  0.58995100  1
  S  S23  1  0.03623500  0.67875600  0.41004900  1
  S  S24  1  0.63043167  0.65457733  0.92328433  1
  S  S25  1  0.98791067  0.69081233  0.74338233  1
  S  S26  1  0.30918767  0.29709833  0.74338233  1
  S  S27  1  0.02414567  0.36956833  0.92328433  1
  S  S28  1  0.34542267  0.97585433  0.92328433  1
  S  S29  1  0.70290167  0.01208933  0.74338233  1
  O  O30  1  0.82349200  0.55779800  0.03591900  1
  O  O31  1  0.44220200  0.26569400  0.03591900  1
  O  O32  1  0.22152633  0.97900767  0.20297267  1
  O  O33  1  0.49156867  0.09755133  0.25845833  1
  O  O34  1  0.73430600  0.17650800  0.03591900  1
  O  O35  1  0.06068400  0.82490200  0.07487500  1
  O  O36  1  0.64567433  0.09081467  0.13036067  1
  O  O37  1  0.23770933  0.79720567  0.27372067  1
  O  O38  1  0.46387233  0.89282967  0.05961267  1
  O  O39  1  0.90918533  0.55485967  0.13036067  1
  O  O40  1  0.76421800  0.93931600  0.07487500  1
  O  O41  1  0.10717033  0.57104267  0.05961267  1
  O  O42  1  0.55949633  0.76229067  0.27372067  1
  O  O43  1  0.90244867  0.39401733  0.25845833  1
  O  O44  1  0.75748133  0.77847367  0.20297267  1
  O  O45  1  0.20279433  0.44050367  0.27372067  1
  O  O46  1  0.42895733  0.53612767  0.05961267  1
  O  O47  1  0.02099233  0.24251867  0.20297267  1
  O  O48  1  0.60598267  0.50843133  0.25845833  1
  O  O49  1  0.93236067  0.15682533  0.29741433  1
  O  O50  1  0.17509800  0.23578200  0.07487500  1
  O  O51  1  0.44514033  0.35432567  0.13036067  1
  O  O52  1  0.22446467  0.06763933  0.29741433  1
  O  O53  1  0.84317467  0.77553533  0.29741433  1
  O  O54  1  0.49015867  0.89113133  0.36925233  1
  O  O55  1  0.10886867  0.59902733  0.36925233  1
  O  O56  1  0.88819300  0.31234100  0.53630600  1
  O  O57  1  0.15823533  0.43088467  0.59179167  1
  O  O58  1  0.40097267  0.50984133  0.36925233  1
  O  O59  1  0.72735067  0.15823533  0.40820833  1
  O  O60  1  0.31234100  0.42414800  0.46369400  1
  O  O61  1  0.90437600  0.13053900  0.60705400  1
  O  O62  1  0.13053900  0.22616300  0.39294600  1
  O  O63  1  0.57585200  0.88819300  0.46369400  1
  O  O64  1  0.43088467  0.27264933  0.40820833  1
  O  O65  1  0.77383700  0.90437600  0.39294600  1
  O  O66  1  0.22616300  0.09562400  0.60705400  1
  O  O67  1  0.56911533  0.72735067  0.59179167  1
  O  O68  1  0.42414800  0.11180700  0.53630600  1
  O  O69  1  0.86946100  0.77383700  0.60705400  1
  O  O70  1  0.09562400  0.86946100  0.39294600  1
  O  O71  1  0.68765900  0.57585200  0.53630600  1
  O  O72  1  0.27264933  0.84176467  0.59179167  1
  O  O73  1  0.59902733  0.49015867  0.63074767  1
  O  O74  1  0.84176467  0.56911533  0.40820833  1
  O  O75  1  0.11180700  0.68765900  0.46369400  1
  O  O76  1  0.89113133  0.40097267  0.63074767  1
  O  O77  1  0.50984133  0.10886867  0.63074767  1
  O  O78  1  0.15682533  0.22446467  0.70258567  1
  O  O79  1  0.77553533  0.93236067  0.70258567  1
  O  O80  1  0.55485967  0.64567433  0.86963933  1
  O  O81  1  0.82490200  0.76421800  0.92512500  1
  O  O82  1  0.06763933  0.84317467  0.70258567  1
  O  O83  1  0.39401733  0.49156867  0.74154167  1
  O  O84  1  0.97900767  0.75748133  0.79702733  1
  O  O85  1  0.57104267  0.46387233  0.94038733  1
  O  O86  1  0.79720567  0.55949633  0.72627933  1
  O  O87  1  0.24251867  0.22152633  0.79702733  1
  O  O88  1  0.09755133  0.60598267  0.74154167  1
  O  O89  1  0.44050367  0.23770933  0.72627933  1
  O  O90  1  0.89282967  0.42895733  0.94038733  1
  O  O91  1  0.23578200  0.06068400  0.92512500  1
  O  O92  1  0.09081467  0.44514033  0.86963933  1
  O  O93  1  0.53612767  0.10717033  0.94038733  1
  O  O94  1  0.76229067  0.20279433  0.72627933  1
  O  O95  1  0.35432567  0.90918533  0.86963933  1
  O  O96  1  0.93931600  0.17509800  0.92512500  1
  O  O97  1  0.26569400  0.82349200  0.96408100  1
  O  O98  1  0.50843133  0.90244867  0.74154167  1
  O  O99  1  0.77847367  0.02099233  0.79702733  1
  O  O100  1  0.55779800  0.73430600  0.96408100  1
  O  O101  1  0.17650800  0.44220200  0.96408100  1
