# generated using pymatgen
data_Al2Si2O7
_symmetry_space_group_name_H-M   'P 1'
_cell_length_a   6.97145000
_cell_length_b   7.73894600
_cell_length_c   9.49369313
_cell_angle_alpha   90.00000000
_cell_angle_beta   111.48958841
_cell_angle_gamma   90.00000000
_symmetry_Int_Tables_number   1
_chemical_formula_structural   Al2Si2O7
_chemical_formula_sum   'Al8 Si8 O28'
_cell_volume   476.59458476
_cell_formula_units_Z   4
loop_
 _symmetry_equiv_pos_site_id
 _symmetry_equiv_pos_as_xyz
  1  'x, y, z'
loop_
 _atom_site_type_symbol
 _atom_site_label
 _atom_site_symmetry_multiplicity
 _atom_site_fract_x
 _atom_site_fract_y
 _atom_site_fract_z
 _atom_site_occupancy
  Al  Al0  1  0.32444100  0.92590000  0.02210500  1
  Al  Al1  1  0.67555900  0.92590000  0.47789500  1
  Al  Al2  1  0.32444100  0.07410000  0.52210500  1
  Al  Al3  1  0.67555900  0.07410000  0.97789500  1
  Al  Al4  1  0.82444100  0.42590000  0.02210500  1
  Al  Al5  1  0.17555900  0.42590000  0.47789500  1
  Al  Al6  1  0.82444100  0.57410000  0.52210500  1
  Al  Al7  1  0.17555900  0.57410000  0.97789500  1
  Si  Si8  1  0.73892800  0.25167800  0.29519700  1
  Si  Si9  1  0.73892800  0.74832200  0.79519700  1
  Si  Si10  1  0.26107200  0.25167800  0.20480300  1
  Si  Si11  1  0.26107200  0.74832200  0.70480300  1
  Si  Si12  1  0.23892800  0.75167800  0.29519700  1
  Si  Si13  1  0.23892800  0.24832200  0.79519700  1
  Si  Si14  1  0.76107200  0.75167800  0.20480300  1
  Si  Si15  1  0.76107200  0.24832200  0.70480300  1
  O  O16  1  0.21354050  0.07661850  0.10773600  1
  O  O17  1  0.39186300  0.90824500  0.39607400  1
  O  O18  1  0.50000000  0.68429000  0.75000000  1
  O  O19  1  0.78645950  0.07661850  0.39226400  1
  O  O20  1  0.28153800  0.73100700  0.13378900  1
  O  O21  1  0.60813700  0.90824500  0.10392600  1
  O  O22  1  0.28153800  0.26899300  0.63378900  1
  O  O23  1  0.71846200  0.73100700  0.36621100  1
  O  O24  1  0.39186300  0.09175500  0.89607400  1
  O  O25  1  0.71846200  0.26899300  0.86621100  1
  O  O26  1  0.21354050  0.92338150  0.60773600  1
  O  O27  1  0.50000000  0.31571000  0.25000000  1
  O  O28  1  0.60813700  0.09175500  0.60392600  1
  O  O29  1  0.78645950  0.92338150  0.89226400  1
  O  O30  1  0.71354050  0.57661850  0.10773600  1
  O  O31  1  0.89186300  0.40824500  0.39607400  1
  O  O32  1  0.00000000  0.18429000  0.75000000  1
  O  O33  1  0.28645950  0.57661850  0.39226400  1
  O  O34  1  0.78153800  0.23100700  0.13378900  1
  O  O35  1  0.10813700  0.40824500  0.10392600  1
  O  O36  1  0.78153800  0.76899300  0.63378900  1
  O  O37  1  0.21846200  0.23100700  0.36621100  1
  O  O38  1  0.89186300  0.59175500  0.89607400  1
  O  O39  1  0.21846200  0.76899300  0.86621100  1
  O  O40  1  0.71354050  0.42338150  0.60773600  1
  O  O41  1  0.00000000  0.81571000  0.25000000  1
  O  O42  1  0.10813700  0.59175500  0.60392600  1
  O  O43  1  0.28645950  0.42338150  0.89226400  1
