# generated using pymatgen
data_Nb3O7F
_symmetry_space_group_name_H-M   'P 1'
_cell_length_a   3.88590600
_cell_length_b   10.52278200
_cell_length_c   16.02879100
_cell_angle_alpha   90.00000000
_cell_angle_beta   90.00000000
_cell_angle_gamma   90.00000000
_symmetry_Int_Tables_number   1
_chemical_formula_structural   Nb3O7F
_chemical_formula_sum   'Nb12 O28 F4'
_cell_volume   655.42594695
_cell_formula_units_Z   4
loop_
 _symmetry_equiv_pos_site_id
 _symmetry_equiv_pos_as_xyz
  1  'x, y, z'
loop_
 _atom_site_type_symbol
 _atom_site_label
 _atom_site_symmetry_multiplicity
 _atom_site_fract_x
 _atom_site_fract_y
 _atom_site_fract_z
 _atom_site_occupancy
  Nb  Nb0  1  0.45537900  0.25000000  0.96392500  1
  Nb  Nb1  1  0.49850000  0.55052400  0.83315000  1
  Nb  Nb2  1  0.49850000  0.94947600  0.83315000  1
  Nb  Nb3  1  0.99850000  0.05052400  0.66685000  1
  Nb  Nb4  1  0.99850000  0.44947600  0.66685000  1
  Nb  Nb5  1  0.95537900  0.75000000  0.53607500  1
  Nb  Nb6  1  0.04462100  0.25000000  0.46392500  1
  Nb  Nb7  1  0.00150000  0.55052400  0.33315000  1
  Nb  Nb8  1  0.00150000  0.94947600  0.33315000  1
  Nb  Nb9  1  0.50150000  0.05052400  0.16685000  1
  Nb  Nb10  1  0.50150000  0.44947600  0.16685000  1
  Nb  Nb11  1  0.54462100  0.75000000  0.03607500  1
  O  O12  1  0.98448000  0.25000000  0.97091400  1
  O  O13  1  0.50820900  0.62467700  0.93640700  1
  O  O14  1  0.50820900  0.87532300  0.93640700  1
  O  O15  1  0.49095100  0.11339300  0.87993200  1
  O  O16  1  0.49095100  0.38660700  0.87993200  1
  O  O17  1  0.99730600  0.95682500  0.79679800  1
  O  O18  1  0.99730600  0.54317500  0.79679800  1
  O  O19  1  0.49730600  0.04317500  0.70320200  1
  O  O20  1  0.49730600  0.45682500  0.70320200  1
  O  O21  1  0.99095100  0.61339300  0.62006800  1
  O  O22  1  0.99095100  0.88660700  0.62006800  1
  O  O23  1  0.00820900  0.12467700  0.56359300  1
  O  O24  1  0.00820900  0.37532300  0.56359300  1
  O  O25  1  0.48448000  0.75000000  0.52908600  1
  O  O26  1  0.51552000  0.25000000  0.47091400  1
  O  O27  1  0.99179100  0.62467700  0.43640700  1
  O  O28  1  0.99179100  0.87532300  0.43640700  1
  O  O29  1  0.00904900  0.11339300  0.37993200  1
  O  O30  1  0.00904900  0.38660700  0.37993200  1
  O  O31  1  0.50269400  0.54317500  0.29679800  1
  O  O32  1  0.50269400  0.95682500  0.29679800  1
  O  O33  1  0.00269400  0.04317500  0.20320200  1
  O  O34  1  0.00269400  0.45682500  0.20320200  1
  O  O35  1  0.50904900  0.61339300  0.12006800  1
  O  O36  1  0.50904900  0.88660700  0.12006800  1
  O  O37  1  0.49179100  0.12467700  0.06359300  1
  O  O38  1  0.49179100  0.37532300  0.06359300  1
  O  O39  1  0.01552000  0.75000000  0.02908600  1
  F  F40  1  0.49474600  0.75000000  0.78653800  1
  F  F41  1  0.99474600  0.25000000  0.71346200  1
  F  F42  1  0.00525400  0.75000000  0.28653800  1
  F  F43  1  0.50525400  0.25000000  0.21346200  1
