# generated using pymatgen
data_LiCu(PO3)3
_symmetry_space_group_name_H-M   'P 1'
_cell_length_a   11.31957000
_cell_length_b   6.38121000
_cell_length_c   9.65957520
_cell_angle_alpha   90.00000000
_cell_angle_beta   93.98850112
_cell_angle_gamma   90.00000000
_symmetry_Int_Tables_number   1
_chemical_formula_structural   LiCu(PO3)3
_chemical_formula_sum   'Li4 Cu4 P12 O36'
_cell_volume   696.04588526
_cell_formula_units_Z   4
loop_
 _symmetry_equiv_pos_site_id
 _symmetry_equiv_pos_as_xyz
  1  'x, y, z'
loop_
 _atom_site_type_symbol
 _atom_site_label
 _atom_site_symmetry_multiplicity
 _atom_site_fract_x
 _atom_site_fract_y
 _atom_site_fract_z
 _atom_site_occupancy
  Li  Li0  1  0.83867050  0.53415750  0.50000300  1
  Li  Li1  1  0.83867050  0.46584250  0.00000300  1
  Li  Li2  1  0.33867050  0.03415750  0.50000300  1
  Li  Li3  1  0.33867050  0.96584250  0.00000300  1
  Cu  Cu4  1  0.66784050  0.99970050  0.00002900  1
  Cu  Cu5  1  0.66784050  0.00029950  0.50002900  1
  Cu  Cu6  1  0.16784050  0.49970050  0.00002900  1
  Cu  Cu7  1  0.16784050  0.50029950  0.50002900  1
  P  P8  1  0.51495250  0.76359650  0.25095000  1
  P  P9  1  0.62215150  0.66146950  0.74611500  1
  P  P10  1  0.51495250  0.23640350  0.75095000  1
  P  P11  1  0.62215150  0.33853050  0.24611500  1
  P  P12  1  0.86097100  0.88761100  0.25302400  1
  P  P13  1  0.86097100  0.11238900  0.75302400  1
  P  P14  1  0.01495250  0.26359650  0.25095000  1
  P  P15  1  0.12215150  0.16146950  0.74611500  1
  P  P16  1  0.01495250  0.73640350  0.75095000  1
  P  P17  1  0.12215150  0.83853050  0.24611500  1
  P  P18  1  0.36097100  0.38761100  0.25302400  1
  P  P19  1  0.36097100  0.61238900  0.75302400  1
  O  O20  1  0.50145800  0.87724500  0.11572100  1
  O  O21  1  0.53342900  0.88662400  0.38394200  1
  O  O22  1  0.67974850  0.72826850  0.88446900  1
  O  O23  1  0.67861800  0.72635700  0.61600600  1
  O  O24  1  0.53342900  0.11337600  0.88394200  1
  O  O25  1  0.50145800  0.12275500  0.61572100  1
  O  O26  1  0.67974850  0.27173150  0.38446900  1
  O  O27  1  0.67861800  0.27364300  0.11600600  1
  O  O28  1  0.81164300  0.81098000  0.38298200  1
  O  O29  1  0.79086250  0.85384150  0.11613000  1
  O  O30  1  0.61724850  0.41033150  0.74603600  1
  O  O31  1  0.61724850  0.58966850  0.24603600  1
  O  O32  1  0.79086250  0.14615850  0.61613000  1
  O  O33  1  0.81164300  0.18902000  0.88298200  1
  O  O34  1  0.89688500  0.12952500  0.26950600  1
  O  O35  1  0.98551600  0.22565700  0.73508600  1
  O  O36  1  0.89688500  0.87047500  0.76950600  1
  O  O37  1  0.98551600  0.77434300  0.23508600  1
  O  O38  1  0.00145800  0.37724500  0.11572100  1
  O  O39  1  0.03342900  0.38662400  0.38394200  1
  O  O40  1  0.17974850  0.22826850  0.88446900  1
  O  O41  1  0.17861800  0.22635700  0.61600600  1
  O  O42  1  0.03342900  0.61337600  0.88394200  1
  O  O43  1  0.00145800  0.62275500  0.61572100  1
  O  O44  1  0.17974850  0.77173150  0.38446900  1
  O  O45  1  0.17861800  0.77364300  0.11600600  1
  O  O46  1  0.31164300  0.31098000  0.38298200  1
  O  O47  1  0.29086250  0.35384150  0.11613000  1
  O  O48  1  0.11724850  0.91033150  0.74603600  1
  O  O49  1  0.11724850  0.08966850  0.24603600  1
  O  O50  1  0.29086250  0.64615850  0.61613000  1
  O  O51  1  0.31164300  0.68902000  0.88298200  1
  O  O52  1  0.39688500  0.62952500  0.26950600  1
  O  O53  1  0.48551600  0.72565700  0.73508600  1
  O  O54  1  0.39688500  0.37047500  0.76950600  1
  O  O55  1  0.48551600  0.27434300  0.23508600  1
