# generated using pymatgen
data_TiMn3O8
_symmetry_space_group_name_H-M   'P 1'
_cell_length_a   8.27550900
_cell_length_b   8.27550900
_cell_length_c   8.27550900
_cell_angle_alpha   90.00000000
_cell_angle_beta   90.00000000
_cell_angle_gamma   90.00000000
_symmetry_Int_Tables_number   1
_chemical_formula_structural   TiMn3O8
_chemical_formula_sum   'Ti4 Mn12 O32'
_cell_volume   566.74036559
_cell_formula_units_Z   4
loop_
 _symmetry_equiv_pos_site_id
 _symmetry_equiv_pos_as_xyz
  1  'x, y, z'
loop_
 _atom_site_type_symbol
 _atom_site_label
 _atom_site_symmetry_multiplicity
 _atom_site_fract_x
 _atom_site_fract_y
 _atom_site_fract_z
 _atom_site_occupancy
  Ti  Ti0  1  0.12500000  0.87500000  0.37500000  1
  Ti  Ti1  1  0.37500000  0.12500000  0.87500000  1
  Ti  Ti2  1  0.62500000  0.62500000  0.62500000  1
  Ti  Ti3  1  0.87500000  0.37500000  0.12500000  1
  Mn  Mn4  1  0.12228200  0.12771800  0.62500000  1
  Mn  Mn5  1  0.12500000  0.37771800  0.87228200  1
  Mn  Mn6  1  0.12771800  0.62500000  0.12228200  1
  Mn  Mn7  1  0.37228200  0.37500000  0.62228200  1
  Mn  Mn8  1  0.37500000  0.62228200  0.37228200  1
  Mn  Mn9  1  0.37771800  0.87228200  0.12500000  1
  Mn  Mn10  1  0.62228200  0.37228200  0.37500000  1
  Mn  Mn11  1  0.62500000  0.12228200  0.12771800  1
  Mn  Mn12  1  0.62771800  0.87500000  0.87771800  1
  Mn  Mn13  1  0.87228200  0.12500000  0.37771800  1
  Mn  Mn14  1  0.87500000  0.87771800  0.62771800  1
  Mn  Mn15  1  0.87771800  0.62771800  0.87500000  1
  O  O16  1  0.10597100  0.11397600  0.39103100  1
  O  O17  1  0.10896900  0.89402900  0.61397600  1
  O  O18  1  0.11152000  0.61152000  0.88848000  1
  O  O19  1  0.13602400  0.14402900  0.85896900  1
  O  O20  1  0.11397600  0.39103100  0.10597100  1
  O  O21  1  0.13848000  0.36152000  0.63848000  1
  O  O22  1  0.14103100  0.63602400  0.35597100  1
  O  O23  1  0.14402900  0.85896900  0.13602400  1
  O  O24  1  0.35597100  0.14103100  0.63602400  1
  O  O25  1  0.35896900  0.36397600  0.85597100  1
  O  O26  1  0.36152000  0.63848000  0.13848000  1
  O  O27  1  0.38602400  0.60896900  0.60597100  1
  O  O28  1  0.36397600  0.85597100  0.35896900  1
  O  O29  1  0.38848000  0.38848000  0.38848000  1
  O  O30  1  0.39103100  0.10597100  0.11397600  1
  O  O31  1  0.39402900  0.88602400  0.89103100  1
  O  O32  1  0.60597100  0.38602400  0.60896900  1
  O  O33  1  0.60896900  0.60597100  0.38602400  1
  O  O34  1  0.61152000  0.88848000  0.11152000  1
  O  O35  1  0.63602400  0.35597100  0.14103100  1
  O  O36  1  0.61397600  0.10896900  0.89402900  1
  O  O37  1  0.63848000  0.13848000  0.36152000  1
  O  O38  1  0.64103100  0.86397600  0.64402900  1
  O  O39  1  0.64402900  0.64103100  0.86397600  1
  O  O40  1  0.85597100  0.35896900  0.36397600  1
  O  O41  1  0.85896900  0.13602400  0.14402900  1
  O  O42  1  0.86152000  0.86152000  0.86152000  1
  O  O43  1  0.88602400  0.89103100  0.39402900  1
  O  O44  1  0.86397600  0.64402900  0.64103100  1
  O  O45  1  0.88848000  0.11152000  0.61152000  1
  O  O46  1  0.89103100  0.39402900  0.88602400  1
  O  O47  1  0.89402900  0.61397600  0.10896900  1
