# generated using pymatgen
data_Li2CoH8(CO5)2
_symmetry_space_group_name_H-M   'P 1'
_cell_length_a   8.54820200
_cell_length_b   6.94763400
_cell_length_c   13.89554530
_cell_angle_alpha   90.00000000
_cell_angle_beta   99.81423637
_cell_angle_gamma   90.00000000
_symmetry_Int_Tables_number   1
_chemical_formula_structural   Li2CoH8(CO5)2
_chemical_formula_sum   'Li8 Co4 H32 C8 O40'
_cell_volume   813.17625491
_cell_formula_units_Z   4
loop_
 _symmetry_equiv_pos_site_id
 _symmetry_equiv_pos_as_xyz
  1  'x, y, z'
loop_
 _atom_site_type_symbol
 _atom_site_label
 _atom_site_symmetry_multiplicity
 _atom_site_fract_x
 _atom_site_fract_y
 _atom_site_fract_z
 _atom_site_occupancy
  Li  Li0  1  0.08116000  0.66801100  0.94231900  1
  Li  Li1  1  0.91884000  0.66801100  0.55768100  1
  Li  Li2  1  0.08116000  0.33198900  0.44231900  1
  Li  Li3  1  0.91884000  0.33198900  0.05768100  1
  Li  Li4  1  0.58116000  0.16801100  0.94231900  1
  Li  Li5  1  0.41884000  0.16801100  0.55768100  1
  Li  Li6  1  0.58116000  0.83198900  0.44231900  1
  Li  Li7  1  0.41884000  0.83198900  0.05768100  1
  Co  Co8  1  0.00000000  0.95512700  0.75000000  1
  Co  Co9  1  0.00000000  0.04487300  0.25000000  1
  Co  Co10  1  0.50000000  0.45512700  0.75000000  1
  Co  Co11  1  0.50000000  0.54487300  0.25000000  1
  H  H12  1  0.30510250  0.53722050  0.55956400  1
  H  H13  1  0.34306600  0.46527300  0.95250800  1
  H  H14  1  0.30510250  0.46277950  0.05956400  1
  H  H15  1  0.34306600  0.53472700  0.45250800  1
  H  H16  1  0.12481550  0.34640650  0.62608900  1
  H  H17  1  0.12481550  0.65359350  0.12608900  1
  H  H18  1  0.05519950  0.31251350  0.87985000  1
  H  H19  1  0.94480050  0.31251350  0.62015000  1
  H  H20  1  0.05519950  0.68748650  0.37985000  1
  H  H21  1  0.94480050  0.68748650  0.12015000  1
  H  H22  1  0.87518450  0.34640650  0.87391100  1
  H  H23  1  0.87518450  0.65359350  0.37391100  1
  H  H24  1  0.65693400  0.46527300  0.54749200  1
  H  H25  1  0.69489750  0.53722050  0.94043600  1
  H  H26  1  0.65693400  0.53472700  0.04749200  1
  H  H27  1  0.69489750  0.46277950  0.44043600  1
  H  H28  1  0.80510250  0.03722050  0.55956400  1
  H  H29  1  0.84306600  0.96527300  0.95250800  1
  H  H30  1  0.80510250  0.96277950  0.05956400  1
  H  H31  1  0.84306600  0.03472700  0.45250800  1
  H  H32  1  0.62481550  0.84640650  0.62608900  1
  H  H33  1  0.62481550  0.15359350  0.12608900  1
  H  H34  1  0.55519950  0.81251350  0.87985000  1
  H  H35  1  0.44480050  0.81251350  0.62015000  1
  H  H36  1  0.55519950  0.18748650  0.37985000  1
  H  H37  1  0.44480050  0.18748650  0.12015000  1
  H  H38  1  0.37518450  0.84640650  0.87391100  1
  H  H39  1  0.37518450  0.15359350  0.37391100  1
  H  H40  1  0.15693400  0.96527300  0.54749200  1
  H  H41  1  0.19489750  0.03722050  0.94043600  1
  H  H42  1  0.15693400  0.03472700  0.04749200  1
  H  H43  1  0.19489750  0.96277950  0.44043600  1
  C  C44  1  0.22048350  0.73763850  0.71160200  1
  C  C45  1  0.22048350  0.26236150  0.21160200  1
  C  C46  1  0.77951650  0.73763850  0.78839800  1
  C  C47  1  0.77951650  0.26236150  0.28839800  1
  C  C48  1  0.72048350  0.23763850  0.71160200  1
  C  C49  1  0.72048350  0.76236150  0.21160200  1
  C  C50  1  0.27951650  0.23763850  0.78839800  1
  C  C51  1  0.27951650  0.76236150  0.28839800  1
  O  O52  1  0.30686900  0.45229500  0.50267700  1
  O  O53  1  0.33821450  0.65314550  0.68151600  1
  O  O54  1  0.30686900  0.54770500  0.00267700  1
  O  O55  1  0.33821450  0.34685450  0.18151600  1
  O  O56  1  0.20347350  0.74376550  0.80192500  1
  O  O57  1  0.11324300  0.82625700  0.64784600  1
  O  O58  1  0.20347350  0.25623450  0.30192500  1
  O  O59  1  0.02086300  0.38955200  0.58956700  1
  O  O60  1  0.11324300  0.17374300  0.14784600  1
  O  O61  1  0.02086300  0.61044800  0.08956700  1
  O  O62  1  0.97913700  0.38955200  0.91043300  1
  O  O63  1  0.88675700  0.82625700  0.85215400  1
  O  O64  1  0.97913700  0.61044800  0.41043300  1
  O  O65  1  0.79652650  0.74376550  0.69807500  1
  O  O66  1  0.88675700  0.17374300  0.35215400  1
  O  O67  1  0.79652650  0.25623450  0.19807500  1
  O  O68  1  0.66178550  0.65314550  0.81848400  1
  O  O69  1  0.69313100  0.45229500  0.99732300  1
  O  O70  1  0.66178550  0.34685450  0.31848400  1
  O  O71  1  0.69313100  0.54770500  0.49732300  1
  O  O72  1  0.80686900  0.95229500  0.50267700  1
  O  O73  1  0.83821450  0.15314550  0.68151600  1
  O  O74  1  0.80686900  0.04770500  0.00267700  1
  O  O75  1  0.83821450  0.84685450  0.18151600  1
  O  O76  1  0.70347350  0.24376550  0.80192500  1
  O  O77  1  0.61324300  0.32625700  0.64784600  1
  O  O78  1  0.70347350  0.75623450  0.30192500  1
  O  O79  1  0.52086300  0.88955200  0.58956700  1
  O  O80  1  0.61324300  0.67374300  0.14784600  1
  O  O81  1  0.52086300  0.11044800  0.08956700  1
  O  O82  1  0.47913700  0.88955200  0.91043300  1
  O  O83  1  0.38675700  0.32625700  0.85215400  1
  O  O84  1  0.47913700  0.11044800  0.41043300  1
  O  O85  1  0.29652650  0.24376550  0.69807500  1
  O  O86  1  0.38675700  0.67374300  0.35215400  1
  O  O87  1  0.29652650  0.75623450  0.19807500  1
  O  O88  1  0.16178550  0.15314550  0.81848400  1
  O  O89  1  0.19313100  0.95229500  0.99732300  1
  O  O90  1  0.16178550  0.84685450  0.31848400  1
  O  O91  1  0.19313100  0.04770500  0.49732300  1
