# generated using pymatgen
data_ZnTe2O5
_symmetry_space_group_name_H-M   'P 1'
_cell_length_a   8.81033500
_cell_length_b   8.81033500
_cell_length_c   12.93115500
_cell_angle_alpha   90.00000000
_cell_angle_beta   90.00000000
_cell_angle_gamma   90.00000000
_symmetry_Int_Tables_number   1
_chemical_formula_structural   ZnTe2O5
_chemical_formula_sum   'Zn8 Te16 O40'
_cell_volume   1003.74214978
_cell_formula_units_Z   8
loop_
 _symmetry_equiv_pos_site_id
 _symmetry_equiv_pos_as_xyz
  1  'x, y, z'
loop_
 _atom_site_type_symbol
 _atom_site_label
 _atom_site_symmetry_multiplicity
 _atom_site_fract_x
 _atom_site_fract_y
 _atom_site_fract_z
 _atom_site_occupancy
  Zn  Zn0  1  0.50000000  0.00000000  0.00000000  1
  Zn  Zn1  1  0.50000000  0.00000000  0.75000000  1
  Zn  Zn2  1  0.50000000  0.00000000  0.25000000  1
  Zn  Zn3  1  0.50000000  0.00000000  0.50000000  1
  Zn  Zn4  1  0.00000000  0.50000000  0.75000000  1
  Zn  Zn5  1  0.00000000  0.50000000  0.00000000  1
  Zn  Zn6  1  0.00000000  0.50000000  0.25000000  1
  Zn  Zn7  1  0.00000000  0.50000000  0.50000000  1
  Te  Te8  1  0.28666100  0.31866900  0.13388600  1
  Te  Te9  1  0.28666100  0.68133100  0.36611400  1
  Te  Te10  1  0.31866900  0.71333900  0.86611400  1
  Te  Te11  1  0.31866900  0.28666100  0.63388600  1
  Te  Te12  1  0.68133100  0.28666100  0.86611400  1
  Te  Te13  1  0.68133100  0.71333900  0.63388600  1
  Te  Te14  1  0.71333900  0.31866900  0.36611400  1
  Te  Te15  1  0.71333900  0.68133100  0.13388600  1
  Te  Te16  1  0.78666100  0.81866900  0.36611400  1
  Te  Te17  1  0.78666100  0.18133100  0.13388600  1
  Te  Te18  1  0.81866900  0.78666100  0.86611400  1
  Te  Te19  1  0.81866900  0.21333900  0.63388600  1
  Te  Te20  1  0.18133100  0.78666100  0.63388600  1
  Te  Te21  1  0.18133100  0.21333900  0.86611400  1
  Te  Te22  1  0.21333900  0.81866900  0.13388600  1
  Te  Te23  1  0.21333900  0.18133100  0.36611400  1
  O  O24  1  0.26916500  0.87516300  0.29808500  1
  O  O25  1  0.26916500  0.12483700  0.20191500  1
  O  O26  1  0.30131200  0.19868800  0.00000000  1
  O  O27  1  0.30131200  0.80131200  0.50000000  1
  O  O28  1  0.35868600  0.92605500  0.88317500  1
  O  O29  1  0.35868600  0.07394500  0.61682500  1
  O  O30  1  0.37516300  0.23083500  0.79808500  1
  O  O31  1  0.37516300  0.76916500  0.70191500  1
  O  O32  1  0.42605500  0.85868600  0.11682500  1
  O  O33  1  0.42605500  0.14131400  0.38317500  1
  O  O34  1  0.57394500  0.85868600  0.38317500  1
  O  O35  1  0.57394500  0.14131400  0.11682500  1
  O  O36  1  0.62483700  0.76916500  0.79808500  1
  O  O37  1  0.62483700  0.23083500  0.70191500  1
  O  O38  1  0.64131400  0.07394500  0.88317500  1
  O  O39  1  0.64131400  0.92605500  0.61682500  1
  O  O40  1  0.69868800  0.80131200  0.00000000  1
  O  O41  1  0.69868800  0.19868800  0.50000000  1
  O  O42  1  0.73083500  0.87516300  0.20191500  1
  O  O43  1  0.73083500  0.12483700  0.29808500  1
  O  O44  1  0.76916500  0.37516300  0.20191500  1
  O  O45  1  0.76916500  0.62483700  0.29808500  1
  O  O46  1  0.80131200  0.30131200  0.00000000  1
  O  O47  1  0.80131200  0.69868800  0.50000000  1
  O  O48  1  0.85868600  0.42605500  0.61682500  1
  O  O49  1  0.85868600  0.57394500  0.88317500  1
  O  O50  1  0.87516300  0.26916500  0.79808500  1
  O  O51  1  0.87516300  0.73083500  0.70191500  1
  O  O52  1  0.92605500  0.35868600  0.38317500  1
  O  O53  1  0.92605500  0.64131400  0.11682500  1
  O  O54  1  0.07394500  0.35868600  0.11682500  1
  O  O55  1  0.07394500  0.64131400  0.38317500  1
  O  O56  1  0.12483700  0.26916500  0.70191500  1
  O  O57  1  0.12483700  0.73083500  0.79808500  1
  O  O58  1  0.14131400  0.42605500  0.88317500  1
  O  O59  1  0.14131400  0.57394500  0.61682500  1
  O  O60  1  0.19868800  0.30131200  0.50000000  1
  O  O61  1  0.19868800  0.69868800  0.00000000  1
  O  O62  1  0.23083500  0.37516300  0.29808500  1
  O  O63  1  0.23083500  0.62483700  0.20191500  1
