# generated using pymatgen
data_Li4Ti3Mn2Ni3O16
_symmetry_space_group_name_H-M   'P 1'
_cell_length_a   10.16809600
_cell_length_b   5.83923200
_cell_length_c   9.43493170
_cell_angle_alpha   90.00000000
_cell_angle_beta   91.62056580
_cell_angle_gamma   90.00000000
_symmetry_Int_Tables_number   1
_chemical_formula_structural   Li4Ti3Mn2Ni3O16
_chemical_formula_sum   'Li8 Ti6 Mn4 Ni6 O32'
_cell_volume   559.96436359
_cell_formula_units_Z   2
loop_
 _symmetry_equiv_pos_site_id
 _symmetry_equiv_pos_as_xyz
  1  'x, y, z'
loop_
 _atom_site_type_symbol
 _atom_site_label
 _atom_site_symmetry_multiplicity
 _atom_site_fract_x
 _atom_site_fract_y
 _atom_site_fract_z
 _atom_site_occupancy
  Li  Li0  1  0.66679000  0.00000000  0.89428000  1
  Li  Li1  1  0.98679100  0.00000000  0.99029800  1
  Li  Li2  1  0.99622700  0.00000000  0.49488900  1
  Li  Li3  1  0.83643800  0.50000000  0.40002400  1
  Li  Li4  1  0.16679000  0.50000000  0.89428000  1
  Li  Li5  1  0.48679100  0.50000000  0.99029800  1
  Li  Li6  1  0.49622700  0.50000000  0.49488900  1
  Li  Li7  1  0.33643800  0.00000000  0.40002400  1
  Ti  Ti8  1  0.58759650  0.24819750  0.21221900  1
  Ti  Ti9  1  0.58759650  0.75180250  0.21221900  1
  Ti  Ti10  1  0.66906800  0.50000000  0.71531500  1
  Ti  Ti11  1  0.08759650  0.74819750  0.21221900  1
  Ti  Ti12  1  0.08759650  0.25180250  0.21221900  1
  Ti  Ti13  1  0.16906800  0.00000000  0.71531500  1
  Mn  Mn14  1  0.67020200  0.00000000  0.48607500  1
  Mn  Mn15  1  0.83848700  0.50000000  0.98110600  1
  Mn  Mn16  1  0.17020200  0.50000000  0.48607500  1
  Mn  Mn17  1  0.33848700  0.00000000  0.98110600  1
  Ni  Ni18  1  0.82849000  0.00000000  0.21135800  1
  Ni  Ni19  1  0.91323850  0.74557950  0.71042000  1
  Ni  Ni20  1  0.91323850  0.25442050  0.71042000  1
  Ni  Ni21  1  0.32849000  0.50000000  0.21135800  1
  Ni  Ni22  1  0.41323850  0.24557950  0.71042000  1
  Ni  Ni23  1  0.41323850  0.75442050  0.71042000  1
  O  O24  1  0.59342800  0.24998800  0.59856900  1
  O  O25  1  0.52242600  0.00000000  0.34189400  1
  O  O26  1  0.65728400  0.00000000  0.10085900  1
  O  O27  1  0.50385000  0.50000000  0.30590200  1
  O  O28  1  0.99463300  0.00000000  0.80081300  1
  O  O29  1  0.59342800  0.75001200  0.59856900  1
  O  O30  1  0.73533450  0.22320950  0.34996200  1
  O  O31  1  0.73533450  0.77679050  0.34996200  1
  O  O32  1  0.67045100  0.50000000  0.10364800  1
  O  O33  1  0.83460400  0.00000000  0.59410800  1
  O  O34  1  0.75477350  0.71421350  0.84944100  1
  O  O35  1  0.75477350  0.28578650  0.84944100  1
  O  O36  1  0.83473300  0.50000000  0.60841400  1
  O  O37  1  0.92177150  0.74064550  0.09657100  1
  O  O38  1  0.97704000  0.50000000  0.84451600  1
  O  O39  1  0.92177150  0.25935450  0.09657100  1
  O  O40  1  0.09342800  0.74998800  0.59856900  1
  O  O41  1  0.02242600  0.50000000  0.34189400  1
  O  O42  1  0.15728400  0.50000000  0.10085900  1
  O  O43  1  0.00385000  0.00000000  0.30590200  1
  O  O44  1  0.49463300  0.50000000  0.80081300  1
  O  O45  1  0.09342800  0.25001200  0.59856900  1
  O  O46  1  0.23533450  0.72320950  0.34996200  1
  O  O47  1  0.23533450  0.27679050  0.34996200  1
  O  O48  1  0.17045100  0.00000000  0.10364800  1
  O  O49  1  0.33460400  0.50000000  0.59410800  1
  O  O50  1  0.25477350  0.21421350  0.84944100  1
  O  O51  1  0.25477350  0.78578650  0.84944100  1
  O  O52  1  0.33473300  0.00000000  0.60841400  1
  O  O53  1  0.42177150  0.24064550  0.09657100  1
  O  O54  1  0.47704000  0.00000000  0.84451600  1
  O  O55  1  0.42177150  0.75935450  0.09657100  1
