# generated using pymatgen
data_Ca9La5Br33
_symmetry_space_group_name_H-M   'P 1'
_cell_length_a   11.81154700
_cell_length_b   11.92626434
_cell_length_c   22.24184853
_cell_angle_alpha   98.46131479
_cell_angle_beta   100.95114636
_cell_angle_gamma   110.03886668
_symmetry_Int_Tables_number   1
_chemical_formula_structural   Ca9La5Br33
_chemical_formula_sum   'Ca18 La10 Br66'
_cell_volume   2812.32762859
_cell_formula_units_Z   2
loop_
 _symmetry_equiv_pos_site_id
 _symmetry_equiv_pos_as_xyz
  1  'x, y, z'
loop_
 _atom_site_type_symbol
 _atom_site_label
 _atom_site_symmetry_multiplicity
 _atom_site_fract_x
 _atom_site_fract_y
 _atom_site_fract_z
 _atom_site_occupancy
  Ca  Ca0  1  0.91067000  0.23586700  0.92742500  1
  Ca  Ca1  1  0.31763000  0.08119000  0.97110600  1
  Ca  Ca2  1  0.47936800  0.01816700  0.19399800  1
  Ca  Ca3  1  0.86733000  0.26215700  0.33434700  1
  Ca  Ca4  1  0.23653500  0.14550700  0.38222100  1
  Ca  Ca5  1  0.68763800  0.40212000  0.54284400  1
  Ca  Ca6  1  0.06873200  0.25775200  0.56054000  1
  Ca  Ca7  1  0.76370100  0.34820000  0.11965900  1
  Ca  Ca8  1  0.13250200  0.20254300  0.15289700  1
  Ca  Ca9  1  0.86749800  0.79745700  0.84710300  1
  Ca  Ca10  1  0.23629900  0.65180000  0.88034100  1
  Ca  Ca11  1  0.93126800  0.74224800  0.43946000  1
  Ca  Ca12  1  0.31236200  0.59788000  0.45715600  1
  Ca  Ca13  1  0.76346500  0.85449300  0.61777900  1
  Ca  Ca14  1  0.13267000  0.73784300  0.66565300  1
  Ca  Ca15  1  0.52063200  0.98183300  0.80600200  1
  Ca  Ca16  1  0.68237000  0.91881000  0.02889400  1
  Ca  Ca17  1  0.08933000  0.76413300  0.07257500  1
  La  La18  1  0.37852900  0.04738300  0.58436300  1
  La  La19  1  0.17398500  0.13649000  0.76278500  1
  La  La20  1  0.86260900  0.35632700  0.73536000  1
  La  La21  1  0.63225800  0.45552800  0.93006900  1
  La  La22  1  0.46635400  0.54408700  0.68395700  1
  La  La23  1  0.53364600  0.45591300  0.31604300  1
  La  La24  1  0.36774200  0.54447200  0.06993100  1
  La  La25  1  0.13739100  0.64367300  0.26464000  1
  La  La26  1  0.82601500  0.86351000  0.23721500  1
  La  La27  1  0.62147100  0.95261700  0.41563700  1
  Br  Br28  1  0.76734800  0.13795000  0.79088300  1
  Br  Br29  1  0.93343000  0.13801600  0.66976800  1
  Br  Br30  1  0.62945700  0.19902400  0.91629800  1
  Br  Br31  1  0.73460200  0.04911000  0.19343100  1
  Br  Br32  1  0.14908800  0.99225900  0.63459400  1
  Br  Br33  1  0.04809400  0.06402100  0.87524700  1
  Br  Br34  1  0.65745100  0.19660000  0.62123500  1
  Br  Br35  1  0.44639900  0.18799600  0.73750500  1
  Br  Br36  1  0.81538500  0.22465500  0.48267800  1
  Br  Br37  1  0.59927500  0.12218900  0.33111800  1
  Br  Br38  1  0.46955900  0.11723900  0.46453400  1
  Br  Br39  1  0.14927800  0.05173400  0.48619600  1
  Br  Br40  1  0.35651300  0.27661100  0.88927900  1
  Br  Br41  1  0.88390500  0.17689100  0.05794200  1
  Br  Br42  1  0.82911500  0.45724700  0.85979000  1
  Br  Br43  1  0.55828900  0.10736600  0.07014000  1
  Br  Br44  1  0.95966700  0.44260000  0.62608000  1
  Br  Br45  1  0.25324700  0.04695800  0.09383400  1
  Br  Br46  1  0.39549600  0.30803900  0.58514500  1
  Br  Br47  1  0.97243000  0.36621800  0.22019500  1
  Br  Br48  1  0.34138700  0.19325200  0.26518000  1
  Br  Br49  1  0.66073300  0.32122500  0.23357400  1
  Br  Br50  1  0.04034600  0.13301600  0.27587500  1
  Br  Br51  1  0.23310600  0.35018600  0.69784300  1
  Br  Br52  1  0.71081600  0.50479900  0.68500400  1
  Br  Br53  1  0.09145700  0.36035100  0.82633800  1
  Br  Br54  1  0.75540700  0.46042400  0.41524700  1
  Br  Br55  1  0.58956300  0.57244600  0.82095900  1
  Br  Br56  1  0.44185800  0.38649200  0.43020300  1
  Br  Br57  1  0.81368500  0.72383000  0.97490000  1
  Br  Br58  1  0.45880200  0.60731000  0.95390900  1
  Br  Br59  1  0.11702100  0.32216500  0.43570400  1
  Br  Br60  1  0.13898900  0.53721400  0.97702300  1
  Br  Br61  1  0.86101100  0.46278600  0.02297700  1
  Br  Br62  1  0.88297900  0.67783500  0.56429600  1
  Br  Br63  1  0.54119800  0.39269000  0.04609100  1
  Br  Br64  1  0.18631500  0.27617000  0.02510000  1
  Br  Br65  1  0.55814200  0.61350800  0.56979700  1
  Br  Br66  1  0.41043700  0.42755400  0.17904100  1
  Br  Br67  1  0.24459300  0.53957600  0.58475300  1
  Br  Br68  1  0.90854300  0.63964900  0.17366200  1
  Br  Br69  1  0.28918400  0.49520100  0.31499600  1
  Br  Br70  1  0.76689400  0.64981400  0.30215700  1
  Br  Br71  1  0.95965400  0.86698400  0.72412500  1
  Br  Br72  1  0.33926700  0.67877500  0.76642600  1
  Br  Br73  1  0.65861300  0.80674800  0.73482000  1
  Br  Br74  1  0.02757000  0.63378200  0.77980500  1
  Br  Br75  1  0.60450400  0.69196100  0.41485500  1
  Br  Br76  1  0.74675300  0.95304200  0.90616600  1
  Br  Br77  1  0.04033300  0.55740000  0.37392000  1
  Br  Br78  1  0.44171100  0.89263400  0.92986000  1
  Br  Br79  1  0.17088500  0.54275300  0.14021000  1
  Br  Br80  1  0.11609500  0.82310900  0.94205800  1
  Br  Br81  1  0.64348700  0.72338900  0.11072100  1
  Br  Br82  1  0.85072200  0.94826600  0.51380400  1
  Br  Br83  1  0.53044100  0.88276100  0.53546600  1
  Br  Br84  1  0.40072500  0.87781100  0.66888200  1
  Br  Br85  1  0.18461500  0.77534500  0.51732200  1
  Br  Br86  1  0.55360100  0.81200400  0.26249500  1
  Br  Br87  1  0.34254900  0.80340000  0.37876500  1
  Br  Br88  1  0.95190600  0.93597900  0.12475300  1
  Br  Br89  1  0.85091200  0.00774100  0.36540600  1
  Br  Br90  1  0.26539800  0.95089000  0.80656900  1
  Br  Br91  1  0.37054300  0.80097600  0.08370200  1
  Br  Br92  1  0.06657000  0.86198400  0.33023200  1
  Br  Br93  1  0.23265200  0.86205000  0.20911700  1
