# generated using pymatgen
data_LiMn(CO3)2
_symmetry_space_group_name_H-M   'P 1'
_cell_length_a   5.39710800
_cell_length_b   11.83742000
_cell_length_c   8.40308913
_cell_angle_alpha   90.00000000
_cell_angle_beta   106.81372572
_cell_angle_gamma   90.00000000
_symmetry_Int_Tables_number   1
_chemical_formula_structural   LiMn(CO3)2
_chemical_formula_sum   'Li4 Mn4 C8 O24'
_cell_volume   513.90472997
_cell_formula_units_Z   4
loop_
 _symmetry_equiv_pos_site_id
 _symmetry_equiv_pos_as_xyz
  1  'x, y, z'
loop_
 _atom_site_type_symbol
 _atom_site_label
 _atom_site_symmetry_multiplicity
 _atom_site_fract_x
 _atom_site_fract_y
 _atom_site_fract_z
 _atom_site_occupancy
  Li  Li0  1  0.14989700  0.61712600  0.34835100  1
  Li  Li1  1  0.64989700  0.88287400  0.84835100  1
  Li  Li2  1  0.64989700  0.11712600  0.34835100  1
  Li  Li3  1  0.14989700  0.38287400  0.84835100  1
  Mn  Mn4  1  0.00500400  0.87076600  0.49707100  1
  Mn  Mn5  1  0.50500400  0.62923400  0.99707100  1
  Mn  Mn6  1  0.50500400  0.37076600  0.49707100  1
  Mn  Mn7  1  0.00500400  0.12923400  0.99707100  1
  C  C8  1  0.78639650  0.83124050  0.20868700  1
  C  C9  1  0.57975000  0.57804000  0.29284100  1
  C  C10  1  0.28639650  0.66875950  0.70868700  1
  C  C11  1  0.07975000  0.92196000  0.79284100  1
  C  C12  1  0.28639650  0.33124050  0.20868700  1
  C  C13  1  0.07975000  0.07804000  0.29284100  1
  C  C14  1  0.78639650  0.16875950  0.70868700  1
  C  C15  1  0.57975000  0.42196000  0.79284100  1
  O  O16  1  0.66465950  0.80602150  0.05975000  1
  O  O17  1  0.35682250  0.60284950  0.17986900  1
  O  O18  1  0.66946800  0.86004800  0.31991100  1
  O  O19  1  0.03828800  0.82892300  0.26803000  1
  O  O20  1  0.78117450  0.59140950  0.24111000  1
  O  O21  1  0.57400900  0.54586900  0.43576100  1
  O  O22  1  0.16465950  0.69397850  0.55975000  1
  O  O23  1  0.53828800  0.67107700  0.76803000  1
  O  O24  1  0.85682250  0.89715050  0.67986900  1
  O  O25  1  0.28117450  0.90859050  0.74111000  1
  O  O26  1  0.16946800  0.63995200  0.81991100  1
  O  O27  1  0.07400900  0.95413100  0.93576100  1
  O  O28  1  0.16465950  0.30602150  0.05975000  1
  O  O29  1  0.85682250  0.10284950  0.17986900  1
  O  O30  1  0.16946800  0.36004800  0.31991100  1
  O  O31  1  0.53828800  0.32892300  0.26803000  1
  O  O32  1  0.28117450  0.09140950  0.24111000  1
  O  O33  1  0.07400900  0.04586900  0.43576100  1
  O  O34  1  0.66465950  0.19397850  0.55975000  1
  O  O35  1  0.03828800  0.17107700  0.76803000  1
  O  O36  1  0.35682250  0.39715050  0.67986900  1
  O  O37  1  0.78117450  0.40859050  0.74111000  1
  O  O38  1  0.66946800  0.13995200  0.81991100  1
  O  O39  1  0.57400900  0.45413100  0.93576100  1
