# generated using pymatgen
data_Na4Bi2P(CO4)4
_symmetry_space_group_name_H-M   'P 1'
_cell_length_a   14.29585400
_cell_length_b   14.62534800
_cell_length_c   15.48363200
_cell_angle_alpha   90.00000000
_cell_angle_beta   90.00000000
_cell_angle_gamma   90.00000000
_symmetry_Int_Tables_number   1
_chemical_formula_structural   Na4Bi2P(CO4)4
_chemical_formula_sum   'Na32 Bi16 P8 C32 O128'
_cell_volume   3237.34626391
_cell_formula_units_Z   8
loop_
 _symmetry_equiv_pos_site_id
 _symmetry_equiv_pos_as_xyz
  1  'x, y, z'
loop_
 _atom_site_type_symbol
 _atom_site_label
 _atom_site_symmetry_multiplicity
 _atom_site_fract_x
 _atom_site_fract_y
 _atom_site_fract_z
 _atom_site_occupancy
  Na  Na0  1  0.75000000  0.45160800  0.25000000  1
  Na  Na1  1  0.54728200  0.25000000  0.25000000  1
  Na  Na2  1  0.29728200  0.00000000  0.00000000  1
  Na  Na3  1  0.50000000  0.20160800  0.00000000  1
  Na  Na4  1  0.75000000  0.04839200  0.25000000  1
  Na  Na5  1  0.95271800  0.25000000  0.25000000  1
  Na  Na6  1  0.70271800  0.00000000  0.00000000  1
  Na  Na7  1  0.50000000  0.79839200  0.00000000  1
  Na  Na8  1  0.75000000  0.95160800  0.75000000  1
  Na  Na9  1  0.54728200  0.75000000  0.75000000  1
  Na  Na10  1  0.29728200  0.50000000  0.50000000  1
  Na  Na11  1  0.50000000  0.70160800  0.50000000  1
  Na  Na12  1  0.75000000  0.54839200  0.75000000  1
  Na  Na13  1  0.95271800  0.75000000  0.75000000  1
  Na  Na14  1  0.70271800  0.50000000  0.50000000  1
  Na  Na15  1  0.50000000  0.29839200  0.50000000  1
  Na  Na16  1  0.25000000  0.45160800  0.75000000  1
  Na  Na17  1  0.04728200  0.25000000  0.75000000  1
  Na  Na18  1  0.79728200  0.00000000  0.50000000  1
  Na  Na19  1  0.00000000  0.20160800  0.50000000  1
  Na  Na20  1  0.25000000  0.04839200  0.75000000  1
  Na  Na21  1  0.45271800  0.25000000  0.75000000  1
  Na  Na22  1  0.20271800  0.00000000  0.50000000  1
  Na  Na23  1  0.00000000  0.79839200  0.50000000  1
  Na  Na24  1  0.25000000  0.95160800  0.25000000  1
  Na  Na25  1  0.04728200  0.75000000  0.25000000  1
  Na  Na26  1  0.79728200  0.50000000  0.00000000  1
  Na  Na27  1  0.00000000  0.70160800  0.00000000  1
  Na  Na28  1  0.25000000  0.54839200  0.25000000  1
  Na  Na29  1  0.45271800  0.75000000  0.25000000  1
  Na  Na30  1  0.20271800  0.50000000  0.00000000  1
  Na  Na31  1  0.00000000  0.29839200  0.00000000  1
  Bi  Bi32  1  0.87500000  0.62500000  0.37500000  1
  Bi  Bi33  1  0.62500000  0.87500000  0.37500000  1
  Bi  Bi34  1  0.62500000  0.62500000  0.12500000  1
  Bi  Bi35  1  0.87500000  0.87500000  0.12500000  1
  Bi  Bi36  1  0.87500000  0.12500000  0.87500000  1
  Bi  Bi37  1  0.62500000  0.37500000  0.87500000  1
  Bi  Bi38  1  0.62500000  0.12500000  0.62500000  1
  Bi  Bi39  1  0.87500000  0.37500000  0.62500000  1
  Bi  Bi40  1  0.37500000  0.62500000  0.87500000  1
  Bi  Bi41  1  0.12500000  0.87500000  0.87500000  1
  Bi  Bi42  1  0.12500000  0.62500000  0.62500000  1
  Bi  Bi43  1  0.37500000  0.87500000  0.62500000  1
  Bi  Bi44  1  0.37500000  0.12500000  0.37500000  1
  Bi  Bi45  1  0.12500000  0.37500000  0.37500000  1
  Bi  Bi46  1  0.12500000  0.12500000  0.12500000  1
  Bi  Bi47  1  0.37500000  0.37500000  0.12500000  1
  P  P48  1  0.50000000  0.00000000  0.00000000  1
  P  P49  1  0.75000000  0.25000000  0.25000000  1
  P  P50  1  0.50000000  0.50000000  0.50000000  1
  P  P51  1  0.75000000  0.75000000  0.75000000  1
  P  P52  1  0.00000000  0.00000000  0.50000000  1
  P  P53  1  0.25000000  0.25000000  0.75000000  1
  P  P54  1  0.00000000  0.50000000  0.00000000  1
  P  P55  1  0.25000000  0.75000000  0.25000000  1
  C  C56  1  0.59995000  0.40307400  0.08974200  1
  C  C57  1  0.34995000  0.15307400  0.16025800  1
  C  C58  1  0.90005000  0.40307400  0.41025800  1
  C  C59  1  0.59995000  0.09692600  0.41025800  1
  C  C60  1  0.15005000  0.15307400  0.33974200  1
  C  C61  1  0.84995000  0.84692600  0.33974200  1
  C  C62  1  0.90005000  0.09692600  0.08974200  1
  C  C63  1  0.65005000  0.84692600  0.16025800  1
  C  C64  1  0.59995000  0.90307400  0.58974200  1
  C  C65  1  0.34995000  0.65307400  0.66025800  1
  C  C66  1  0.90005000  0.90307400  0.91025800  1
  C  C67  1  0.59995000  0.59692600  0.91025800  1
  C  C68  1  0.15005000  0.65307400  0.83974200  1
  C  C69  1  0.84995000  0.34692600  0.83974200  1
  C  C70  1  0.90005000  0.59692600  0.58974200  1
  C  C71  1  0.65005000  0.34692600  0.66025800  1
  C  C72  1  0.09995000  0.40307400  0.58974200  1
  C  C73  1  0.84995000  0.15307400  0.66025800  1
  C  C74  1  0.40005000  0.40307400  0.91025800  1
  C  C75  1  0.09995000  0.09692600  0.91025800  1
  C  C76  1  0.65005000  0.15307400  0.83974200  1
  C  C77  1  0.34995000  0.84692600  0.83974200  1
  C  C78  1  0.40005000  0.09692600  0.58974200  1
  C  C79  1  0.15005000  0.84692600  0.66025800  1
  C  C80  1  0.09995000  0.90307400  0.08974200  1
  C  C81  1  0.84995000  0.65307400  0.16025800  1
  C  C82  1  0.40005000  0.90307400  0.41025800  1
  C  C83  1  0.09995000  0.59692600  0.41025800  1
  C  C84  1  0.65005000  0.65307400  0.33974200  1
  C  C85  1  0.34995000  0.34692600  0.33974200  1
  C  C86  1  0.40005000  0.59692600  0.08974200  1
  C  C87  1  0.15005000  0.34692600  0.16025800  1
  O  O88  1  0.10880550  0.96428550  0.15003700  1
  O  O89  1  0.43751000  0.93641400  0.05568500  1
  O  O90  1  0.15476350  0.90410450  0.02339200  1
  O  O91  1  0.40476350  0.15410450  0.22660800  1
  O  O92  1  0.34523650  0.90410450  0.47660800  1
  O  O93  1  0.28517100  0.09017600  0.15307800  1
  O  O94  1  0.06249000  0.93641400  0.44431500  1
  O  O95  1  0.56249000  0.06358600  0.05568500  1
  O  O96  1  0.78517100  0.90982400  0.34692200  1
  O  O97  1  0.65476350  0.09589550  0.47660800  1
  O  O98  1  0.35880550  0.21428550  0.09996300  1
  O  O99  1  0.93751000  0.06358600  0.44431500  1
  O  O100  1  0.39119450  0.96428550  0.34996300  1
  O  O101  1  0.60880550  0.03571450  0.34996300  1
  O  O102  1  0.53517100  0.34017600  0.09692200  1
  O  O103  1  0.21482900  0.09017600  0.34692200  1
  O  O104  1  0.03517100  0.65982400  0.40307800  1
  O  O105  1  0.71482900  0.90982400  0.15307800  1
  O  O106  1  0.14119450  0.21428550  0.40003700  1
  O  O107  1  0.85880550  0.78571450  0.40003700  1
  O  O108  1  0.81249000  0.18641400  0.30568500  1
  O  O109  1  0.89119450  0.03571450  0.15003700  1
  O  O110  1  0.09523650  0.15410450  0.27339200  1
  O  O111  1  0.96482900  0.34017600  0.40307800  1
  O  O112  1  0.68751000  0.18641400  0.19431500  1
  O  O113  1  0.68751000  0.31358600  0.30568500  1
  O  O114  1  0.46482900  0.65982400  0.09692200  1
  O  O115  1  0.90476350  0.84589550  0.27339200  1
  O  O116  1  0.84523650  0.09589550  0.02339200  1
  O  O117  1  0.59523650  0.84589550  0.22660800  1
  O  O118  1  0.81249000  0.31358600  0.19431500  1
  O  O119  1  0.64119450  0.78571450  0.09996300  1
  O  O120  1  0.10880550  0.46428550  0.65003700  1
  O  O121  1  0.43751000  0.43641400  0.55568500  1
  O  O122  1  0.15476350  0.40410450  0.52339200  1
  O  O123  1  0.40476350  0.65410450  0.72660800  1
  O  O124  1  0.34523650  0.40410450  0.97660800  1
  O  O125  1  0.28517100  0.59017600  0.65307800  1
  O  O126  1  0.06249000  0.43641400  0.94431500  1
  O  O127  1  0.56249000  0.56358600  0.55568500  1
  O  O128  1  0.78517100  0.40982400  0.84692200  1
  O  O129  1  0.65476350  0.59589550  0.97660800  1
  O  O130  1  0.35880550  0.71428550  0.59996300  1
  O  O131  1  0.93751000  0.56358600  0.94431500  1
  O  O132  1  0.39119450  0.46428550  0.84996300  1
  O  O133  1  0.60880550  0.53571450  0.84996300  1
  O  O134  1  0.53517100  0.84017600  0.59692200  1
  O  O135  1  0.21482900  0.59017600  0.84692200  1
  O  O136  1  0.03517100  0.15982400  0.90307800  1
  O  O137  1  0.71482900  0.40982400  0.65307800  1
  O  O138  1  0.14119450  0.71428550  0.90003700  1
  O  O139  1  0.85880550  0.28571450  0.90003700  1
  O  O140  1  0.81249000  0.68641400  0.80568500  1
  O  O141  1  0.89119450  0.53571450  0.65003700  1
  O  O142  1  0.09523650  0.65410450  0.77339200  1
  O  O143  1  0.96482900  0.84017600  0.90307800  1
  O  O144  1  0.68751000  0.68641400  0.69431500  1
  O  O145  1  0.68751000  0.81358600  0.80568500  1
  O  O146  1  0.46482900  0.15982400  0.59692200  1
  O  O147  1  0.90476350  0.34589550  0.77339200  1
  O  O148  1  0.84523650  0.59589550  0.52339200  1
  O  O149  1  0.59523650  0.34589550  0.72660800  1
  O  O150  1  0.81249000  0.81358600  0.69431500  1
  O  O151  1  0.64119450  0.28571450  0.59996300  1
  O  O152  1  0.60880550  0.96428550  0.65003700  1
  O  O153  1  0.93751000  0.93641400  0.55568500  1
  O  O154  1  0.65476350  0.90410450  0.52339200  1
  O  O155  1  0.90476350  0.15410450  0.72660800  1
  O  O156  1  0.84523650  0.90410450  0.97660800  1
  O  O157  1  0.78517100  0.09017600  0.65307800  1
  O  O158  1  0.56249000  0.93641400  0.94431500  1
  O  O159  1  0.06249000  0.06358600  0.55568500  1
  O  O160  1  0.28517100  0.90982400  0.84692200  1
  O  O161  1  0.15476350  0.09589550  0.97660800  1
  O  O162  1  0.85880550  0.21428550  0.59996300  1
  O  O163  1  0.43751000  0.06358600  0.94431500  1
  O  O164  1  0.89119450  0.96428550  0.84996300  1
  O  O165  1  0.10880550  0.03571450  0.84996300  1
  O  O166  1  0.03517100  0.34017600  0.59692200  1
  O  O167  1  0.71482900  0.09017600  0.84692200  1
  O  O168  1  0.53517100  0.65982400  0.90307800  1
  O  O169  1  0.21482900  0.90982400  0.65307800  1
  O  O170  1  0.64119450  0.21428550  0.90003700  1
  O  O171  1  0.35880550  0.78571450  0.90003700  1
  O  O172  1  0.31249000  0.18641400  0.80568500  1
  O  O173  1  0.39119450  0.03571450  0.65003700  1
  O  O174  1  0.59523650  0.15410450  0.77339200  1
  O  O175  1  0.46482900  0.34017600  0.90307800  1
  O  O176  1  0.18751000  0.18641400  0.69431500  1
  O  O177  1  0.18751000  0.31358600  0.80568500  1
  O  O178  1  0.96482900  0.65982400  0.59692200  1
  O  O179  1  0.40476350  0.84589550  0.77339200  1
  O  O180  1  0.34523650  0.09589550  0.52339200  1
  O  O181  1  0.09523650  0.84589550  0.72660800  1
  O  O182  1  0.31249000  0.31358600  0.69431500  1
  O  O183  1  0.14119450  0.78571450  0.59996300  1
  O  O184  1  0.60880550  0.46428550  0.15003700  1
  O  O185  1  0.93751000  0.43641400  0.05568500  1
  O  O186  1  0.65476350  0.40410450  0.02339200  1
  O  O187  1  0.90476350  0.65410450  0.22660800  1
  O  O188  1  0.84523650  0.40410450  0.47660800  1
  O  O189  1  0.78517100  0.59017600  0.15307800  1
  O  O190  1  0.56249000  0.43641400  0.44431500  1
  O  O191  1  0.06249000  0.56358600  0.05568500  1
  O  O192  1  0.28517100  0.40982400  0.34692200  1
  O  O193  1  0.15476350  0.59589550  0.47660800  1
  O  O194  1  0.85880550  0.71428550  0.09996300  1
  O  O195  1  0.43751000  0.56358600  0.44431500  1
  O  O196  1  0.89119450  0.46428550  0.34996300  1
  O  O197  1  0.10880550  0.53571450  0.34996300  1
  O  O198  1  0.03517100  0.84017600  0.09692200  1
  O  O199  1  0.71482900  0.59017600  0.34692200  1
  O  O200  1  0.53517100  0.15982400  0.40307800  1
  O  O201  1  0.21482900  0.40982400  0.15307800  1
  O  O202  1  0.64119450  0.71428550  0.40003700  1
  O  O203  1  0.35880550  0.28571450  0.40003700  1
  O  O204  1  0.31249000  0.68641400  0.30568500  1
  O  O205  1  0.39119450  0.53571450  0.15003700  1
  O  O206  1  0.59523650  0.65410450  0.27339200  1
  O  O207  1  0.46482900  0.84017600  0.40307800  1
  O  O208  1  0.18751000  0.68641400  0.19431500  1
  O  O209  1  0.18751000  0.81358600  0.30568500  1
  O  O210  1  0.96482900  0.15982400  0.09692200  1
  O  O211  1  0.40476350  0.34589550  0.27339200  1
  O  O212  1  0.34523650  0.59589550  0.02339200  1
  O  O213  1  0.09523650  0.34589550  0.22660800  1
  O  O214  1  0.31249000  0.81358600  0.19431500  1
  O  O215  1  0.14119450  0.28571450  0.09996300  1
