# generated using pymatgen
data_V3O5
_symmetry_space_group_name_H-M   'P 1'
_cell_length_a   10.17866940
_cell_length_b   5.19573400
_cell_length_c   7.10895840
_cell_angle_alpha   90.00000000
_cell_angle_beta   112.18539319
_cell_angle_gamma   90.00000000
_symmetry_Int_Tables_number   1
_chemical_formula_structural   V3O5
_chemical_formula_sum   'V12 O20'
_cell_volume   348.12831145
_cell_formula_units_Z   4
loop_
 _symmetry_equiv_pos_site_id
 _symmetry_equiv_pos_as_xyz
  1  'x, y, z'
loop_
 _atom_site_type_symbol
 _atom_site_label
 _atom_site_symmetry_multiplicity
 _atom_site_fract_x
 _atom_site_fract_y
 _atom_site_fract_z
 _atom_site_occupancy
  V  V0  1  0.00278850  0.99410850  0.49868100  1
  V  V1  1  0.13021900  0.49698100  0.72232900  1
  V  V2  1  0.87135100  0.50159100  0.78163000  1
  V  V3  1  0.00278850  0.00589150  0.99868100  1
  V  V4  1  0.13021900  0.50301900  0.22232900  1
  V  V5  1  0.87135100  0.49840900  0.28163000  1
  V  V6  1  0.50278850  0.49410850  0.49868100  1
  V  V7  1  0.63021900  0.99698100  0.72232900  1
  V  V8  1  0.37135100  0.00159100  0.78163000  1
  V  V9  1  0.50278850  0.50589150  0.99868100  1
  V  V10  1  0.63021900  0.00301900  0.22232900  1
  V  V11  1  0.37135100  0.99840900  0.28163000  1
  O  O12  1  0.00192850  0.19882150  0.74541300  1
  O  O13  1  0.00192850  0.80117850  0.24541300  1
  O  O14  1  0.18691350  0.83829150  0.66280300  1
  O  O15  1  0.18691350  0.16170850  0.16280300  1
  O  O16  1  0.80169150  0.14313850  0.33446900  1
  O  O17  1  0.80169150  0.85686150  0.83446900  1
  O  O18  1  0.08132600  0.65291900  0.94446900  1
  O  O19  1  0.08132600  0.34708100  0.44446900  1
  O  O20  1  0.92376200  0.34919800  0.06019300  1
  O  O21  1  0.92376200  0.65080200  0.56019300  1
  O  O22  1  0.50192850  0.69882150  0.74541300  1
  O  O23  1  0.50192850  0.30117850  0.24541300  1
  O  O24  1  0.68691350  0.33829150  0.66280300  1
  O  O25  1  0.68691350  0.66170850  0.16280300  1
  O  O26  1  0.30169150  0.64313850  0.33446900  1
  O  O27  1  0.30169150  0.35686150  0.83446900  1
  O  O28  1  0.58132600  0.15291900  0.94446900  1
  O  O29  1  0.58132600  0.84708100  0.44446900  1
  O  O30  1  0.42376200  0.84919800  0.06019300  1
  O  O31  1  0.42376200  0.15080200  0.56019300  1
