# generated using pymatgen
data_CuPO3
_symmetry_space_group_name_H-M   'P 1'
_cell_length_a   16.35795692
_cell_length_b   16.35795692
_cell_length_c   6.68153242
_cell_angle_alpha   90.00000000
_cell_angle_beta   90.00000000
_cell_angle_gamma   120.00000000
_symmetry_Int_Tables_number   1
_chemical_formula_structural   CuPO3
_chemical_formula_sum   'Cu18 P18 O54'
_cell_volume   1548.33464763
_cell_formula_units_Z   18
loop_
 _symmetry_equiv_pos_site_id
 _symmetry_equiv_pos_as_xyz
  1  'x, y, z'
loop_
 _atom_site_type_symbol
 _atom_site_label
 _atom_site_symmetry_multiplicity
 _atom_site_fract_x
 _atom_site_fract_y
 _atom_site_fract_z
 _atom_site_occupancy
  Cu  Cu0  1  0.93140167  0.26337133  0.61445133  1
  Cu  Cu1  1  0.59670467  0.99863633  0.05221533  1
  Cu  Cu2  1  0.66803033  0.93140167  0.38554867  1
  Cu  Cu3  1  0.99863633  0.40193167  0.94778467  1
  Cu  Cu4  1  0.06996200  0.33469700  0.28111800  1
  Cu  Cu5  1  0.73526500  0.06996200  0.71888200  1
  Cu  Cu6  1  0.59806833  0.59670467  0.94778467  1
  Cu  Cu7  1  0.26337133  0.33196967  0.38554867  1
  Cu  Cu8  1  0.33469700  0.26473500  0.71888200  1
  Cu  Cu9  1  0.66530300  0.73526500  0.28111800  1
  Cu  Cu10  1  0.73662867  0.66803033  0.61445133  1
  Cu  Cu11  1  0.40193167  0.40329533  0.05221533  1
  Cu  Cu12  1  0.26473500  0.93003800  0.28111800  1
  Cu  Cu13  1  0.93003800  0.66530300  0.71888200  1
  Cu  Cu14  1  0.00136367  0.59806833  0.05221533  1
  Cu  Cu15  1  0.33196967  0.06859833  0.61445133  1
  Cu  Cu16  1  0.40329533  0.00136367  0.94778467  1
  Cu  Cu17  1  0.06859833  0.73662867  0.38554867  1
  P  P18  1  0.16879100  0.46925400  0.63755300  1
  P  P19  1  0.69953700  0.16879100  0.36244700  1
  P  P20  1  0.80258733  0.96712967  0.02911367  1
  P  P21  1  0.86407933  0.36620367  0.30421967  1
  P  P22  1  0.96712967  0.16454233  0.97088633  1
  P  P23  1  0.49787567  0.86407933  0.69578033  1
  P  P24  1  0.83545767  0.80258733  0.97088633  1
  P  P25  1  0.36620367  0.50212433  0.69578033  1
  P  P26  1  0.46925400  0.30046300  0.36244700  1
  P  P27  1  0.53074600  0.69953700  0.63755300  1
  P  P28  1  0.63379633  0.49787567  0.30421967  1
  P  P29  1  0.16454233  0.19741267  0.02911367  1
  P  P30  1  0.50212433  0.13592067  0.30421967  1
  P  P31  1  0.03287033  0.83545767  0.02911367  1
  P  P32  1  0.13592067  0.63379633  0.69578033  1
  P  P33  1  0.19741267  0.03287033  0.97088633  1
  P  P34  1  0.30046300  0.83120900  0.63755300  1
  P  P35  1  0.83120900  0.53074600  0.36244700  1
  O  O36  1  0.17158533  0.56755267  0.59898967  1
  O  O37  1  0.92436100  0.35409900  0.45772000  1
  O  O38  1  0.60403267  0.17158533  0.40101033  1
  O  O39  1  0.16650833  0.42889767  0.43347267  1
  O  O40  1  0.73761067  0.16650833  0.56652733  1
  O  O41  1  0.68743233  0.09640467  0.20894667  1
  O  O42  1  0.57026200  0.92436100  0.54228000  1
  O  O43  1  0.90088600  0.06263400  0.06767700  1
  O  O44  1  0.76223100  0.92905600  0.23319400  1
  O  O45  1  0.90443567  0.40427733  0.10013933  1
  O  O46  1  0.76578067  0.27069933  0.26565633  1
  O  O47  1  0.09640467  0.40897233  0.79105333  1
  O  O48  1  0.97923433  0.23692867  0.12438667  1
  O  O49  1  0.92905600  0.16682500  0.76680600  1
  O  O50  1  0.50015833  0.90443567  0.89986067  1
  O  O51  1  0.06263400  0.16174800  0.93232300  1
  O  O52  1  0.74230567  0.97923433  0.87561333  1
  O  O53  1  0.49508133  0.76578067  0.73434367  1
  O  O54  1  0.83825200  0.90088600  0.93232300  1
  O  O55  1  0.59102767  0.68743233  0.79105333  1
  O  O56  1  0.27069933  0.50491867  0.73434367  1
  O  O57  1  0.83317500  0.76223100  0.76680600  1
  O  O58  1  0.40427733  0.49984167  0.89986067  1
  O  O59  1  0.35409900  0.42973800  0.54228000  1
  O  O60  1  0.23692867  0.25769433  0.87561333  1
  O  O61  1  0.56755267  0.39596733  0.40101033  1
  O  O62  1  0.42889767  0.26238933  0.56652733  1
  O  O63  1  0.57110233  0.73761067  0.43347267  1
  O  O64  1  0.43244733  0.60403267  0.59898967  1
  O  O65  1  0.76307133  0.74230567  0.12438667  1
  O  O66  1  0.64590100  0.57026200  0.45772000  1
  O  O67  1  0.59572267  0.50015833  0.10013933  1
  O  O68  1  0.16682500  0.23776900  0.23319400  1
  O  O69  1  0.72930067  0.49508133  0.26565633  1
  O  O70  1  0.40897233  0.31256767  0.20894667  1
  O  O71  1  0.16174800  0.09911400  0.06767700  1
  O  O72  1  0.50491867  0.23421933  0.26565633  1
  O  O73  1  0.25769433  0.02076567  0.12438667  1
  O  O74  1  0.93736600  0.83825200  0.06767700  1
  O  O75  1  0.49984167  0.09556433  0.10013933  1
  O  O76  1  0.07094400  0.83317500  0.23319400  1
  O  O77  1  0.02076567  0.76307133  0.87561333  1
  O  O78  1  0.90359533  0.59102767  0.20894667  1
  O  O79  1  0.23421933  0.72930067  0.73434367  1
  O  O80  1  0.09556433  0.59572267  0.89986067  1
  O  O81  1  0.23776900  0.07094400  0.76680600  1
  O  O82  1  0.09911400  0.93736600  0.93232300  1
  O  O83  1  0.42973800  0.07563900  0.45772000  1
  O  O84  1  0.31256767  0.90359533  0.79105333  1
  O  O85  1  0.26238933  0.83349167  0.43347267  1
  O  O86  1  0.83349167  0.57110233  0.56652733  1
  O  O87  1  0.39596733  0.82841467  0.59898967  1
  O  O88  1  0.07563900  0.64590100  0.54228000  1
  O  O89  1  0.82841467  0.43244733  0.40101033  1
