# generated using pymatgen
data_Li5NbO5
_symmetry_space_group_name_H-M   'P 1'
_cell_length_a   5.75295200
_cell_length_b   9.39463800
_cell_length_c   9.09201674
_cell_angle_alpha   90.00000000
_cell_angle_beta   104.53606212
_cell_angle_gamma   90.00000000
_symmetry_Int_Tables_number   1
_chemical_formula_structural   Li5NbO5
_chemical_formula_sum   'Li20 Nb4 O20'
_cell_volume   475.66569891
_cell_formula_units_Z   4
loop_
 _symmetry_equiv_pos_site_id
 _symmetry_equiv_pos_as_xyz
  1  'x, y, z'
loop_
 _atom_site_type_symbol
 _atom_site_label
 _atom_site_symmetry_multiplicity
 _atom_site_fract_x
 _atom_site_fract_y
 _atom_site_fract_z
 _atom_site_occupancy
  Li  Li0  1  0.63138800  0.67283200  0.56125200  1
  Li  Li1  1  0.33922300  0.11589600  0.95773100  1
  Li  Li2  1  0.50000000  0.82798200  0.75000000  1
  Li  Li3  1  0.63138800  0.32716800  0.06125200  1
  Li  Li4  1  0.33922300  0.88410400  0.45773100  1
  Li  Li5  1  0.66077700  0.11589600  0.54226900  1
  Li  Li6  1  0.36861200  0.67283200  0.93874800  1
  Li  Li7  1  0.50000000  0.17201800  0.25000000  1
  Li  Li8  1  0.66077700  0.88410400  0.04226900  1
  Li  Li9  1  0.36861200  0.32716800  0.43874800  1
  Li  Li10  1  0.13138800  0.17283200  0.56125200  1
  Li  Li11  1  0.83922300  0.61589600  0.95773100  1
  Li  Li12  1  0.00000000  0.32798200  0.75000000  1
  Li  Li13  1  0.13138800  0.82716800  0.06125200  1
  Li  Li14  1  0.83922300  0.38410400  0.45773100  1
  Li  Li15  1  0.16077700  0.61589600  0.54226900  1
  Li  Li16  1  0.86861200  0.17283200  0.93874800  1
  Li  Li17  1  0.00000000  0.67201800  0.25000000  1
  Li  Li18  1  0.16077700  0.38410400  0.04226900  1
  Li  Li19  1  0.86861200  0.82716800  0.43874800  1
  Nb  Nb20  1  0.50000000  0.41216600  0.75000000  1
  Nb  Nb21  1  0.50000000  0.58783400  0.25000000  1
  Nb  Nb22  1  0.00000000  0.91216600  0.75000000  1
  Nb  Nb23  1  0.00000000  0.08783400  0.25000000  1
  O  O24  1  0.34503450  0.32879450  0.89451300  1
  O  O25  1  0.68377800  0.88704000  0.58862300  1
  O  O26  1  0.34503450  0.67120550  0.39451300  1
  O  O27  1  0.68377800  0.11296000  0.08862300  1
  O  O28  1  0.50000000  0.61366100  0.75000000  1
  O  O29  1  0.50000000  0.38633900  0.25000000  1
  O  O30  1  0.31622200  0.88704000  0.91137700  1
  O  O31  1  0.65496550  0.32879450  0.60548700  1
  O  O32  1  0.31622200  0.11296000  0.41137700  1
  O  O33  1  0.65496550  0.67120550  0.10548700  1
  O  O34  1  0.84503450  0.82879450  0.89451300  1
  O  O35  1  0.18377800  0.38704000  0.58862300  1
  O  O36  1  0.84503450  0.17120550  0.39451300  1
  O  O37  1  0.18377800  0.61296000  0.08862300  1
  O  O38  1  0.00000000  0.11366100  0.75000000  1
  O  O39  1  0.00000000  0.88633900  0.25000000  1
  O  O40  1  0.81622200  0.38704000  0.91137700  1
  O  O41  1  0.15496550  0.82879450  0.60548700  1
  O  O42  1  0.81622200  0.61296000  0.41137700  1
  O  O43  1  0.15496550  0.17120550  0.10548700  1
