# generated using pymatgen
data_TmClO
_symmetry_space_group_name_H-M   'P 1'
_cell_length_a   3.75554030
_cell_length_b   3.75554030
_cell_length_c   28.30231259
_cell_angle_alpha   90.00000000
_cell_angle_beta   90.00000000
_cell_angle_gamma   120.00000000
_symmetry_Int_Tables_number   1
_chemical_formula_structural   TmClO
_chemical_formula_sum   'Tm6 Cl6 O6'
_cell_volume   345.69843051
_cell_formula_units_Z   6
loop_
 _symmetry_equiv_pos_site_id
 _symmetry_equiv_pos_as_xyz
  1  'x, y, z'
loop_
 _atom_site_type_symbol
 _atom_site_label
 _atom_site_symmetry_multiplicity
 _atom_site_fract_x
 _atom_site_fract_y
 _atom_site_fract_z
 _atom_site_occupancy
  Tm  Tm0  1  0.66666667  0.33333333  0.04992433  1
  Tm  Tm1  1  0.00000000  0.00000000  0.28340900  1
  Tm  Tm2  1  0.33333333  0.66666667  0.38325767  1
  Tm  Tm3  1  0.66666667  0.33333333  0.61674233  1
  Tm  Tm4  1  0.00000000  0.00000000  0.71659100  1
  Tm  Tm5  1  0.33333333  0.66666667  0.95007567  1
  Cl  Cl6  1  0.66666667  0.33333333  0.22243233  1
  Cl  Cl7  1  0.00000000  0.00000000  0.11090100  1
  Cl  Cl8  1  0.33333333  0.66666667  0.55576567  1
  Cl  Cl9  1  0.66666667  0.33333333  0.44423433  1
  Cl  Cl10  1  0.00000000  0.00000000  0.88909900  1
  Cl  Cl11  1  0.33333333  0.66666667  0.77756767  1
  O  O12  1  0.33333333  0.66666667  0.30356967  1
  O  O13  1  0.33333333  0.66666667  0.02976367  1
  O  O14  1  0.00000000  0.00000000  0.63690300  1
  O  O15  1  0.00000000  0.00000000  0.36309700  1
  O  O16  1  0.66666667  0.33333333  0.97023633  1
  O  O17  1  0.66666667  0.33333333  0.69643033  1
