# generated using pymatgen
data_Ca2P2H4O9
_symmetry_space_group_name_H-M   'P 1'
_cell_length_a   6.74747300
_cell_length_b   7.40705020
_cell_length_c   8.34123366
_cell_angle_alpha   85.14236247
_cell_angle_beta   77.28361138
_cell_angle_gamma   73.00554795
_symmetry_Int_Tables_number   1
_chemical_formula_structural   Ca2P2H4O9
_chemical_formula_sum   'Ca4 P4 H8 O18'
_cell_volume   388.80985280
_cell_formula_units_Z   2
loop_
 _symmetry_equiv_pos_site_id
 _symmetry_equiv_pos_as_xyz
  1  'x, y, z'
loop_
 _atom_site_type_symbol
 _atom_site_label
 _atom_site_symmetry_multiplicity
 _atom_site_fract_x
 _atom_site_fract_y
 _atom_site_fract_z
 _atom_site_occupancy
  Ca  Ca0  1  0.31050700  0.24795800  0.49508100  1
  Ca  Ca1  1  0.68949300  0.75204200  0.50491900  1
  Ca  Ca2  1  0.25721600  0.86658400  0.24461500  1
  Ca  Ca3  1  0.74278400  0.13341600  0.75538500  1
  P  P4  1  0.26127400  0.99025300  0.81271600  1
  P  P5  1  0.73872600  0.00974700  0.18728400  1
  P  P6  1  0.16661300  0.71231400  0.64401600  1
  P  P7  1  0.83338700  0.28768600  0.35598400  1
  H  H8  1  0.09838600  0.52248300  0.26215900  1
  H  H9  1  0.90161400  0.47751700  0.73784100  1
  H  H10  1  0.32766100  0.46247000  0.15075400  1
  H  H11  1  0.67233900  0.53753000  0.84924600  1
  H  H12  1  0.34221400  0.23521300  0.97647100  1
  H  H13  1  0.65778600  0.76478700  0.02352900  1
  H  H14  1  0.31740800  0.42081800  0.86640600  1
  H  H15  1  0.68259200  0.57918200  0.13359400  1
  O  O16  1  0.25377300  0.01884600  0.99178200  1
  O  O17  1  0.74622700  0.98115400  0.00821800  1
  O  O18  1  0.48006000  0.98475800  0.70140600  1
  O  O19  1  0.51994000  0.01524200  0.29859400  1
  O  O20  1  0.09280700  0.13554700  0.73604100  1
  O  O21  1  0.90719300  0.86445300  0.26395900  1
  O  O22  1  0.22297200  0.78289500  0.80545700  1
  O  O23  1  0.77702800  0.21710500  0.19454300  1
  O  O24  1  0.17864400  0.50344600  0.68131800  1
  O  O25  1  0.82135600  0.49655400  0.31868200  1
  O  O26  1  0.33936500  0.74303600  0.49931900  1
  O  O27  1  0.66063500  0.25696400  0.50068100  1
  O  O28  1  0.94286200  0.82886600  0.62822700  1
  O  O29  1  0.05713800  0.17113400  0.37177300  1
  O  O30  1  0.24954600  0.50766700  0.26208400  1
  O  O31  1  0.75045400  0.49233300  0.73791600  1
  O  O32  1  0.40832300  0.33906500  0.93734900  1
  O  O33  1  0.59167700  0.66093500  0.06265100  1
