# generated using pymatgen
data_TiNb2O7
_symmetry_space_group_name_H-M   'P 1'
_cell_length_a   20.78621000
_cell_length_b   3.82797000
_cell_length_c   12.16400428
_cell_angle_alpha   90.00000000
_cell_angle_beta   120.11441930
_cell_angle_gamma   90.00000000
_symmetry_Int_Tables_number   1
_chemical_formula_structural   TiNb2O7
_chemical_formula_sum   'Ti6 Nb12 O42'
_cell_volume   837.23842155
_cell_formula_units_Z   6
loop_
 _symmetry_equiv_pos_site_id
 _symmetry_equiv_pos_as_xyz
  1  'x, y, z'
loop_
 _atom_site_type_symbol
 _atom_site_label
 _atom_site_symmetry_multiplicity
 _atom_site_fract_x
 _atom_site_fract_y
 _atom_site_fract_z
 _atom_site_occupancy
  Ti  Ti0  1  0.07902400  0.00000000  0.64140100  1
  Ti  Ti1  1  0.99987100  0.00000000  0.99802600  1
  Ti  Ti2  1  0.79112100  0.50000000  0.36341200  1
  Ti  Ti3  1  0.57902400  0.50000000  0.64140100  1
  Ti  Ti4  1  0.49987100  0.50000000  0.99802600  1
  Ti  Ti5  1  0.29112100  0.00000000  0.36341200  1
  Nb  Nb6  1  0.89337300  0.00000000  0.63192800  1
  Nb  Nb7  1  0.81912700  0.00000000  0.00008200  1
  Nb  Nb8  1  0.20588900  0.50000000  0.63401600  1
  Nb  Nb9  1  0.92296400  0.00000000  0.36794600  1
  Nb  Nb10  1  0.68180700  0.50000000  0.00352800  1
  Nb  Nb11  1  0.10975500  0.00000000  0.36281700  1
  Nb  Nb12  1  0.39337300  0.50000000  0.63192800  1
  Nb  Nb13  1  0.31912700  0.50000000  0.00008200  1
  Nb  Nb14  1  0.70588900  0.00000000  0.63401600  1
  Nb  Nb15  1  0.42296400  0.50000000  0.36794600  1
  Nb  Nb16  1  0.18180700  0.00000000  0.00352800  1
  Nb  Nb17  1  0.60975500  0.50000000  0.36281700  1
  O  O18  1  0.95027300  0.00000000  0.80290300  1
  O  O19  1  0.29183700  0.00000000  0.99654500  1
  O  O20  1  0.12522600  0.00000000  0.81047300  1
  O  O21  1  0.87219500  0.50000000  0.57993400  1
  O  O22  1  0.40077000  0.50000000  0.98410600  1
  O  O23  1  0.70832000  0.50000000  0.38158500  1
  O  O24  1  0.97584100  0.00000000  0.58338100  1
  O  O25  1  0.25086900  0.50000000  0.80760900  1
  O  O26  1  0.49964200  0.00000000  0.99979500  1
  O  O27  1  0.82669000  0.00000000  0.40202900  1
  O  O28  1  0.09731100  0.50000000  0.62372500  1
  O  O29  1  0.90236200  0.50000000  0.37819400  1
  O  O30  1  0.17265400  0.00000000  0.59622400  1
  O  O31  1  0.74975000  0.50000000  0.19589700  1
  O  O32  1  0.02458200  0.00000000  0.41499400  1
  O  O33  1  0.29041700  0.50000000  0.61652000  1
  O  O34  1  0.59846800  0.50000000  0.01532800  1
  O  O35  1  0.12674200  0.50000000  0.41977400  1
  O  O36  1  0.87540500  0.00000000  0.19055200  1
  O  O37  1  0.70929400  0.00000000  0.00367700  1
  O  O38  1  0.04842300  0.00000000  0.19360400  1
  O  O39  1  0.45027300  0.50000000  0.80290300  1
  O  O40  1  0.79183700  0.50000000  0.99654500  1
  O  O41  1  0.62522600  0.50000000  0.81047300  1
  O  O42  1  0.37219500  0.00000000  0.57993400  1
  O  O43  1  0.90077000  0.00000000  0.98410600  1
  O  O44  1  0.20832000  0.00000000  0.38158500  1
  O  O45  1  0.47584100  0.50000000  0.58338100  1
  O  O46  1  0.75086900  0.00000000  0.80760900  1
  O  O47  1  0.99964200  0.50000000  0.99979500  1
  O  O48  1  0.32669000  0.50000000  0.40202900  1
  O  O49  1  0.59731100  0.00000000  0.62372500  1
  O  O50  1  0.40236200  0.00000000  0.37819400  1
  O  O51  1  0.67265400  0.50000000  0.59622400  1
  O  O52  1  0.24975000  0.00000000  0.19589700  1
  O  O53  1  0.52458200  0.50000000  0.41499400  1
  O  O54  1  0.79041700  0.00000000  0.61652000  1
  O  O55  1  0.09846800  0.00000000  0.01532800  1
  O  O56  1  0.62674200  0.00000000  0.41977400  1
  O  O57  1  0.37540500  0.50000000  0.19055200  1
  O  O58  1  0.20929400  0.50000000  0.00367700  1
  O  O59  1  0.54842300  0.50000000  0.19360400  1
