# generated using pymatgen
data_Li4Cu2Si3O10
_symmetry_space_group_name_H-M   'P 1'
_cell_length_a   9.26284400
_cell_length_b   5.50287200
_cell_length_c   16.24746996
_cell_angle_alpha   90.00000000
_cell_angle_beta   98.29962210
_cell_angle_gamma   90.00000000
_symmetry_Int_Tables_number   1
_chemical_formula_structural   Li4Cu2Si3O10
_chemical_formula_sum   'Li16 Cu8 Si12 O40'
_cell_volume   819.49637857
_cell_formula_units_Z   4
loop_
 _symmetry_equiv_pos_site_id
 _symmetry_equiv_pos_as_xyz
  1  'x, y, z'
loop_
 _atom_site_type_symbol
 _atom_site_label
 _atom_site_symmetry_multiplicity
 _atom_site_fract_x
 _atom_site_fract_y
 _atom_site_fract_z
 _atom_site_occupancy
  Li  Li0  1  0.75886600  0.92358100  0.55312600  1
  Li  Li1  1  0.68583200  0.10169000  0.73440000  1
  Li  Li2  1  0.75886600  0.07641900  0.05312600  1
  Li  Li3  1  0.68583200  0.89831000  0.23440000  1
  Li  Li4  1  0.31416800  0.10169000  0.76560000  1
  Li  Li5  1  0.24113400  0.92358100  0.94687400  1
  Li  Li6  1  0.31416800  0.89831000  0.26560000  1
  Li  Li7  1  0.24113400  0.07641900  0.44687400  1
  Li  Li8  1  0.25886600  0.42358100  0.55312600  1
  Li  Li9  1  0.18583200  0.60169000  0.73440000  1
  Li  Li10  1  0.25886600  0.57641900  0.05312600  1
  Li  Li11  1  0.18583200  0.39831000  0.23440000  1
  Li  Li12  1  0.81416800  0.60169000  0.76560000  1
  Li  Li13  1  0.74113400  0.42358100  0.94687400  1
  Li  Li14  1  0.81416800  0.39831000  0.26560000  1
  Li  Li15  1  0.74113400  0.57641900  0.44687400  1
  Cu  Cu16  1  0.59016750  0.38958250  0.58204200  1
  Cu  Cu17  1  0.59016750  0.61041750  0.08204200  1
  Cu  Cu18  1  0.40983250  0.38958250  0.91795800  1
  Cu  Cu19  1  0.40983250  0.61041750  0.41795800  1
  Cu  Cu20  1  0.09016750  0.88958250  0.58204200  1
  Cu  Cu21  1  0.09016750  0.11041750  0.08204200  1
  Cu  Cu22  1  0.90983250  0.88958250  0.91795800  1
  Cu  Cu23  1  0.90983250  0.11041750  0.41795800  1
  Si  Si24  1  0.56346300  0.90741000  0.90311200  1
  Si  Si25  1  0.50000000  0.60896900  0.75000000  1
  Si  Si26  1  0.43653700  0.90741000  0.59688800  1
  Si  Si27  1  0.56346300  0.09259000  0.40311200  1
  Si  Si28  1  0.50000000  0.39103100  0.25000000  1
  Si  Si29  1  0.43653700  0.09259000  0.09688800  1
  Si  Si30  1  0.06346300  0.40741000  0.90311200  1
  Si  Si31  1  0.00000000  0.10896900  0.75000000  1
  Si  Si32  1  0.93653700  0.40741000  0.59688800  1
  Si  Si33  1  0.06346300  0.59259000  0.40311200  1
  Si  Si34  1  0.00000000  0.89103100  0.25000000  1
  Si  Si35  1  0.93653700  0.59259000  0.09688800  1
  O  O36  1  0.88524400  0.95246800  0.79502700  1
  O  O37  1  0.88524400  0.04753200  0.29502700  1
  O  O38  1  0.69587750  0.08875950  0.93425100  1
  O  O39  1  0.59977050  0.03220650  0.61344000  1
  O  O40  1  0.60234950  0.80024950  0.81171600  1
  O  O41  1  0.43439100  0.65599100  0.54077100  1
  O  O42  1  0.56560900  0.65599100  0.95922900  1
  O  O43  1  0.69587750  0.91124050  0.43425100  1
  O  O44  1  0.59977050  0.96779350  0.11344000  1
  O  O45  1  0.39765050  0.80024950  0.68828400  1
  O  O46  1  0.60234950  0.19975050  0.31171600  1
  O  O47  1  0.40022950  0.03220650  0.88656000  1
  O  O48  1  0.30412250  0.08875950  0.56574900  1
  O  O49  1  0.43439100  0.34400900  0.04077100  1
  O  O50  1  0.56560900  0.34400900  0.45922900  1
  O  O51  1  0.39765050  0.19975050  0.18828400  1
  O  O52  1  0.40022950  0.96779350  0.38656000  1
  O  O53  1  0.30412250  0.91124050  0.06574900  1
  O  O54  1  0.11475600  0.95246800  0.70497300  1
  O  O55  1  0.11475600  0.04753200  0.20497300  1
  O  O56  1  0.38524400  0.45246800  0.79502700  1
  O  O57  1  0.38524400  0.54753200  0.29502700  1
  O  O58  1  0.19587750  0.58875950  0.93425100  1
  O  O59  1  0.09977050  0.53220650  0.61344000  1
  O  O60  1  0.10234950  0.30024950  0.81171600  1
  O  O61  1  0.93439100  0.15599100  0.54077100  1
  O  O62  1  0.06560900  0.15599100  0.95922900  1
  O  O63  1  0.19587750  0.41124050  0.43425100  1
  O  O64  1  0.09977050  0.46779350  0.11344000  1
  O  O65  1  0.89765050  0.30024950  0.68828400  1
  O  O66  1  0.10234950  0.69975050  0.31171600  1
  O  O67  1  0.90022950  0.53220650  0.88656000  1
  O  O68  1  0.80412250  0.58875950  0.56574900  1
  O  O69  1  0.93439100  0.84400900  0.04077100  1
  O  O70  1  0.06560900  0.84400900  0.45922900  1
  O  O71  1  0.89765050  0.69975050  0.18828400  1
  O  O72  1  0.90022950  0.46779350  0.38656000  1
  O  O73  1  0.80412250  0.41124050  0.06574900  1
  O  O74  1  0.61475600  0.45246800  0.70497300  1
  O  O75  1  0.61475600  0.54753200  0.20497300  1
