# generated using pymatgen
data_AlGaO3
_symmetry_space_group_name_H-M   'P 1'
_cell_length_a   5.00167600
_cell_length_b   8.60147700
_cell_length_c   9.27784400
_cell_angle_alpha   90.00000000
_cell_angle_beta   90.00000000
_cell_angle_gamma   90.00000000
_symmetry_Int_Tables_number   1
_chemical_formula_structural   AlGaO3
_chemical_formula_sum   'Al8 Ga8 O24'
_cell_volume   399.14955898
_cell_formula_units_Z   8
loop_
 _symmetry_equiv_pos_site_id
 _symmetry_equiv_pos_as_xyz
  1  'x, y, z'
loop_
 _atom_site_type_symbol
 _atom_site_label
 _atom_site_symmetry_multiplicity
 _atom_site_fract_x
 _atom_site_fract_y
 _atom_site_fract_z
 _atom_site_occupancy
  Al  Al0  1  0.17146500  0.15429900  0.00096200  1
  Al  Al1  1  0.18209600  0.83675200  0.80462300  1
  Al  Al2  1  0.31790400  0.33675200  0.30462300  1
  Al  Al3  1  0.32853500  0.65429900  0.50096200  1
  Al  Al4  1  0.67146500  0.34570100  0.00096200  1
  Al  Al5  1  0.68209600  0.66324800  0.80462300  1
  Al  Al6  1  0.81790400  0.16324800  0.30462300  1
  Al  Al7  1  0.82853500  0.84570100  0.50096200  1
  Ga  Ga8  1  0.16938200  0.46783500  0.79846700  1
  Ga  Ga9  1  0.18788500  0.14923000  0.58363200  1
  Ga  Ga10  1  0.31211500  0.64923000  0.08363200  1
  Ga  Ga11  1  0.33061800  0.96783500  0.29846700  1
  Ga  Ga12  1  0.66938200  0.03216500  0.79846700  1
  Ga  Ga13  1  0.68788500  0.35077000  0.58363200  1
  Ga  Ga14  1  0.81211500  0.85077000  0.08363200  1
  Ga  Ga15  1  0.83061800  0.53216500  0.29846700  1
  O  O16  1  0.00598700  0.32679200  0.94230600  1
  O  O17  1  0.00908200  0.01019800  0.43014500  1
  O  O18  1  0.02045700  0.67750300  0.91807100  1
  O  O19  1  0.15840400  0.82934300  0.17012700  1
  O  O20  1  0.14739200  0.16455000  0.19466500  1
  O  O21  1  0.16014100  0.49281800  0.20139100  1
  O  O22  1  0.33985900  0.99281800  0.70139100  1
  O  O23  1  0.35260800  0.66455000  0.69466500  1
  O  O24  1  0.34159600  0.32934300  0.67012700  1
  O  O25  1  0.47954300  0.17750300  0.41807100  1
  O  O26  1  0.49091800  0.51019800  0.93014500  1
  O  O27  1  0.49401300  0.82679200  0.44230600  1
  O  O28  1  0.50598700  0.17320800  0.94230600  1
  O  O29  1  0.50908200  0.48980200  0.43014500  1
  O  O30  1  0.52045700  0.82249700  0.91807100  1
  O  O31  1  0.65840400  0.67065700  0.17012700  1
  O  O32  1  0.64739200  0.33545000  0.19466500  1
  O  O33  1  0.66014100  0.00718200  0.20139100  1
  O  O34  1  0.83985900  0.50718200  0.70139100  1
  O  O35  1  0.85260800  0.83545000  0.69466500  1
  O  O36  1  0.84159600  0.17065700  0.67012700  1
  O  O37  1  0.97954300  0.32249700  0.41807100  1
  O  O38  1  0.99091800  0.98980200  0.93014500  1
  O  O39  1  0.99401300  0.67320800  0.44230600  1
