# generated using pymatgen
data_LiVF5
_symmetry_space_group_name_H-M   'P 1'
_cell_length_a   8.32381400
_cell_length_b   6.42387600
_cell_length_c   6.79509747
_cell_angle_alpha   90.00000000
_cell_angle_beta   112.97344651
_cell_angle_gamma   90.00000000
_symmetry_Int_Tables_number   1
_chemical_formula_structural   LiVF5
_chemical_formula_sum   'Li4 V4 F20'
_cell_volume   334.52352871
_cell_formula_units_Z   4
loop_
 _symmetry_equiv_pos_site_id
 _symmetry_equiv_pos_as_xyz
  1  'x, y, z'
loop_
 _atom_site_type_symbol
 _atom_site_label
 _atom_site_symmetry_multiplicity
 _atom_site_fract_x
 _atom_site_fract_y
 _atom_site_fract_z
 _atom_site_occupancy
  Li  Li0  1  0.00000000  0.00000000  0.00000000  1
  Li  Li1  1  0.00000000  0.00000000  0.50000000  1
  Li  Li2  1  0.50000000  0.50000000  0.00000000  1
  Li  Li3  1  0.50000000  0.50000000  0.50000000  1
  V  V4  1  0.00000000  0.44512700  0.25000000  1
  V  V5  1  0.00000000  0.55487300  0.75000000  1
  V  V6  1  0.50000000  0.94512700  0.25000000  1
  V  V7  1  0.50000000  0.05487300  0.75000000  1
  F  F8  1  0.99329650  0.66954550  0.05940800  1
  F  F9  1  0.24087300  0.45919200  0.36085300  1
  F  F10  1  0.00000000  0.15833600  0.25000000  1
  F  F11  1  0.75912700  0.45919200  0.13914700  1
  F  F12  1  0.00670350  0.66954550  0.44059200  1
  F  F13  1  0.99329650  0.33045450  0.55940800  1
  F  F14  1  0.24087300  0.54080800  0.86085300  1
  F  F15  1  0.00000000  0.84166400  0.75000000  1
  F  F16  1  0.75912700  0.54080800  0.63914700  1
  F  F17  1  0.00670350  0.33045450  0.94059200  1
  F  F18  1  0.49329650  0.16954550  0.05940800  1
  F  F19  1  0.74087300  0.95919200  0.36085300  1
  F  F20  1  0.50000000  0.65833600  0.25000000  1
  F  F21  1  0.25912700  0.95919200  0.13914700  1
  F  F22  1  0.50670350  0.16954550  0.44059200  1
  F  F23  1  0.49329650  0.83045450  0.55940800  1
  F  F24  1  0.74087300  0.04080800  0.86085300  1
  F  F25  1  0.50000000  0.34166400  0.75000000  1
  F  F26  1  0.25912700  0.04080800  0.63914700  1
  F  F27  1  0.50670350  0.83045450  0.94059200  1
