# generated using pymatgen
data_NaCa2V3Zn2O12
_symmetry_space_group_name_H-M   'P 1'
_cell_length_a   12.59611600
_cell_length_b   12.59611600
_cell_length_c   12.60011800
_cell_angle_alpha   90.00000000
_cell_angle_beta   90.00000000
_cell_angle_gamma   90.00000000
_symmetry_Int_Tables_number   1
_chemical_formula_structural   NaCa2V3Zn2O12
_chemical_formula_sum   'Na8 Ca16 V24 Zn16 O96'
_cell_volume   1999.16166453
_cell_formula_units_Z   8
loop_
 _symmetry_equiv_pos_site_id
 _symmetry_equiv_pos_as_xyz
  1  'x, y, z'
loop_
 _atom_site_type_symbol
 _atom_site_label
 _atom_site_symmetry_multiplicity
 _atom_site_fract_x
 _atom_site_fract_y
 _atom_site_fract_z
 _atom_site_occupancy
  Na  Na0  1  0.50000000  0.00000000  0.00000000  1
  Na  Na1  1  0.00000000  0.00000000  0.25000000  1
  Na  Na2  1  0.00000000  0.50000000  0.00000000  1
  Na  Na3  1  0.00000000  0.00000000  0.75000000  1
  Na  Na4  1  0.00000000  0.50000000  0.50000000  1
  Na  Na5  1  0.50000000  0.50000000  0.75000000  1
  Na  Na6  1  0.50000000  0.00000000  0.50000000  1
  Na  Na7  1  0.50000000  0.50000000  0.25000000  1
  Ca  Ca8  1  0.25000000  0.87676700  0.12500000  1
  Ca  Ca9  1  0.62323300  0.75000000  0.37500000  1
  Ca  Ca10  1  0.25000000  0.37676700  0.12500000  1
  Ca  Ca11  1  0.62323300  0.25000000  0.87500000  1
  Ca  Ca12  1  0.75000000  0.12323300  0.12500000  1
  Ca  Ca13  1  0.37676700  0.25000000  0.37500000  1
  Ca  Ca14  1  0.25000000  0.12323300  0.62500000  1
  Ca  Ca15  1  0.87676700  0.25000000  0.37500000  1
  Ca  Ca16  1  0.75000000  0.37676700  0.62500000  1
  Ca  Ca17  1  0.12323300  0.25000000  0.87500000  1
  Ca  Ca18  1  0.75000000  0.87676700  0.62500000  1
  Ca  Ca19  1  0.12323300  0.75000000  0.37500000  1
  Ca  Ca20  1  0.25000000  0.62323300  0.62500000  1
  Ca  Ca21  1  0.87676700  0.75000000  0.87500000  1
  Ca  Ca22  1  0.75000000  0.62323300  0.12500000  1
  Ca  Ca23  1  0.37676700  0.75000000  0.87500000  1
  V  V24  1  0.00000000  0.00000000  0.00000000  1
  V  V25  1  0.25000000  0.37455300  0.62500000  1
  V  V26  1  0.37455300  0.25000000  0.87500000  1
  V  V27  1  0.25000000  0.12544700  0.12500000  1
  V  V28  1  0.37455300  0.75000000  0.37500000  1
  V  V29  1  0.50000000  0.00000000  0.25000000  1
  V  V30  1  0.00000000  0.00000000  0.50000000  1
  V  V31  1  0.25000000  0.87455300  0.62500000  1
  V  V32  1  0.12544700  0.75000000  0.87500000  1
  V  V33  1  0.12544700  0.25000000  0.37500000  1
  V  V34  1  0.25000000  0.62544700  0.12500000  1
  V  V35  1  0.00000000  0.50000000  0.25000000  1
  V  V36  1  0.50000000  0.50000000  0.50000000  1
  V  V37  1  0.75000000  0.87455300  0.12500000  1
  V  V38  1  0.87455300  0.75000000  0.37500000  1
  V  V39  1  0.75000000  0.62544700  0.62500000  1
  V  V40  1  0.87455300  0.25000000  0.87500000  1
  V  V41  1  0.00000000  0.50000000  0.75000000  1
  V  V42  1  0.50000000  0.50000000  0.00000000  1
  V  V43  1  0.75000000  0.37455300  0.12500000  1
  V  V44  1  0.62544700  0.25000000  0.37500000  1
  V  V45  1  0.62544700  0.75000000  0.87500000  1
  V  V46  1  0.75000000  0.12544700  0.62500000  1
  V  V47  1  0.50000000  0.00000000  0.75000000  1
  Zn  Zn48  1  0.75000000  0.50000000  0.37500000  1
  Zn  Zn49  1  0.00000000  0.25000000  0.62500000  1
  Zn  Zn50  1  0.00000000  0.75000000  0.12500000  1
  Zn  Zn51  1  0.25000000  0.50000000  0.37500000  1
  Zn  Zn52  1  0.50000000  0.25000000  0.12500000  1
  Zn  Zn53  1  0.25000000  0.50000000  0.87500000  1
  Zn  Zn54  1  0.25000000  0.00000000  0.37500000  1
  Zn  Zn55  1  0.00000000  0.25000000  0.12500000  1
  Zn  Zn56  1  0.25000000  0.00000000  0.87500000  1
  Zn  Zn57  1  0.50000000  0.75000000  0.12500000  1
  Zn  Zn58  1  0.50000000  0.25000000  0.62500000  1
  Zn  Zn59  1  0.75000000  0.00000000  0.87500000  1
  Zn  Zn60  1  0.00000000  0.75000000  0.62500000  1
  Zn  Zn61  1  0.75000000  0.00000000  0.37500000  1
  Zn  Zn62  1  0.75000000  0.50000000  0.87500000  1
  Zn  Zn63  1  0.50000000  0.75000000  0.62500000  1
  O  O64  1  0.96201950  0.19999450  0.78093250  1
  O  O65  1  0.15610850  0.71470150  0.17801850  1
  O  O66  1  0.05482950  0.90407250  0.08460550  1
  O  O67  1  0.59592750  0.55482950  0.41539450  1
  O  O68  1  0.15610850  0.28529850  0.67801850  1
  O  O69  1  0.78529850  0.65610850  0.32198150  1
  O  O70  1  0.30000550  0.03798050  0.03093250  1
  O  O71  1  0.15610850  0.21470150  0.07198150  1
  O  O72  1  0.19999450  0.03798050  0.21906750  1
  O  O73  1  0.28529850  0.84389150  0.32198150  1
  O  O74  1  0.30000550  0.46201950  0.71906750  1
  O  O75  1  0.09592750  0.55482950  0.33460550  1
  O  O76  1  0.44517050  0.90407250  0.16539450  1
  O  O77  1  0.46201950  0.30000550  0.78093250  1
  O  O78  1  0.28529850  0.34389150  0.92801850  1
  O  O79  1  0.46201950  0.19999450  0.96906750  1
  O  O80  1  0.94517050  0.09592750  0.08460550  1
  O  O81  1  0.19999450  0.46201950  0.53093250  1
  O  O82  1  0.46201950  0.80000550  0.46906750  1
  O  O83  1  0.34389150  0.21470150  0.17801850  1
  O  O84  1  0.40407250  0.05482950  0.33460550  1
  O  O85  1  0.55482950  0.09592750  0.16539450  1
  O  O86  1  0.40407250  0.55482950  0.91539450  1
  O  O87  1  0.78529850  0.15610850  0.92801850  1
  O  O88  1  0.21470150  0.34389150  0.32198150  1
  O  O89  1  0.59592750  0.94517050  0.33460550  1
  O  O90  1  0.44517050  0.40407250  0.08460550  1
  O  O91  1  0.09592750  0.94517050  0.41539450  1
  O  O92  1  0.65610850  0.28529850  0.07198150  1
  O  O93  1  0.03798050  0.19999450  0.28093250  1
  O  O94  1  0.30000550  0.53798050  0.21906750  1
  O  O95  1  0.05482950  0.40407250  0.16539450  1
  O  O96  1  0.53798050  0.30000550  0.28093250  1
  O  O97  1  0.21470150  0.65610850  0.82198150  1
  O  O98  1  0.03798050  0.69999450  0.96906750  1
  O  O99  1  0.05482950  0.09592750  0.58460550  1
  O  O100  1  0.40407250  0.44517050  0.41539450  1
  O  O101  1  0.19999450  0.53798050  0.03093250  1
  O  O102  1  0.21470150  0.15610850  0.42801850  1
  O  O103  1  0.30000550  0.96201950  0.53093250  1
  O  O104  1  0.84389150  0.28529850  0.17801850  1
  O  O105  1  0.19999450  0.96201950  0.71906750  1
  O  O106  1  0.71470150  0.34389150  0.42801850  1
  O  O107  1  0.84389150  0.21470150  0.57198150  1
  O  O108  1  0.90407250  0.44517050  0.33460550  1
  O  O109  1  0.94517050  0.59592750  0.16539450  1
  O  O110  1  0.34389150  0.28529850  0.57198150  1
  O  O111  1  0.03798050  0.30000550  0.46906750  1
  O  O112  1  0.46201950  0.69999450  0.28093250  1
  O  O113  1  0.65610850  0.21470150  0.67801850  1
  O  O114  1  0.55482950  0.40407250  0.58460550  1
  O  O115  1  0.09592750  0.05482950  0.91539450  1
  O  O116  1  0.65610850  0.78529850  0.17801850  1
  O  O117  1  0.28529850  0.15610850  0.82198150  1
  O  O118  1  0.80000550  0.53798050  0.53093250  1
  O  O119  1  0.65610850  0.71470150  0.57198150  1
  O  O120  1  0.69999450  0.53798050  0.71906750  1
  O  O121  1  0.78529850  0.34389150  0.82198150  1
  O  O122  1  0.80000550  0.96201950  0.21906750  1
  O  O123  1  0.59592750  0.05482950  0.83460550  1
  O  O124  1  0.94517050  0.40407250  0.66539450  1
  O  O125  1  0.96201950  0.80000550  0.28093250  1
  O  O126  1  0.78529850  0.84389150  0.42801850  1
  O  O127  1  0.96201950  0.69999450  0.46906750  1
  O  O128  1  0.44517050  0.59592750  0.58460550  1
  O  O129  1  0.69999450  0.96201950  0.03093250  1
  O  O130  1  0.96201950  0.30000550  0.96906750  1
  O  O131  1  0.84389150  0.71470150  0.67801850  1
  O  O132  1  0.90407250  0.55482950  0.83460550  1
  O  O133  1  0.05482950  0.59592750  0.66539450  1
  O  O134  1  0.90407250  0.05482950  0.41539450  1
  O  O135  1  0.28529850  0.65610850  0.42801850  1
  O  O136  1  0.71470150  0.84389150  0.82198150  1
  O  O137  1  0.09592750  0.44517050  0.83460550  1
  O  O138  1  0.94517050  0.90407250  0.58460550  1
  O  O139  1  0.59592750  0.44517050  0.91539450  1
  O  O140  1  0.15610850  0.78529850  0.57198150  1
  O  O141  1  0.53798050  0.69999450  0.78093250  1
  O  O142  1  0.80000550  0.03798050  0.71906750  1
  O  O143  1  0.55482950  0.90407250  0.66539450  1
  O  O144  1  0.03798050  0.80000550  0.78093250  1
  O  O145  1  0.71470150  0.15610850  0.32198150  1
  O  O146  1  0.53798050  0.19999450  0.46906750  1
  O  O147  1  0.55482950  0.59592750  0.08460550  1
  O  O148  1  0.90407250  0.94517050  0.91539450  1
  O  O149  1  0.69999450  0.03798050  0.53093250  1
  O  O150  1  0.71470150  0.65610850  0.92801850  1
  O  O151  1  0.80000550  0.46201950  0.03093250  1
  O  O152  1  0.34389150  0.78529850  0.67801850  1
  O  O153  1  0.69999450  0.46201950  0.21906750  1
  O  O154  1  0.21470150  0.84389150  0.92801850  1
  O  O155  1  0.34389150  0.71470150  0.07198150  1
  O  O156  1  0.40407250  0.94517050  0.83460550  1
  O  O157  1  0.44517050  0.09592750  0.66539450  1
  O  O158  1  0.84389150  0.78529850  0.07198150  1
  O  O159  1  0.53798050  0.80000550  0.96906750  1
