# generated using pymatgen
data_TeH12(Cl2O3)2
_symmetry_space_group_name_H-M   'P 1'
_cell_length_a   6.90632300
_cell_length_b   8.81709300
_cell_length_c   18.68965300
_cell_angle_alpha   90.00000000
_cell_angle_beta   90.00000000
_cell_angle_gamma   90.00000000
_symmetry_Int_Tables_number   1
_chemical_formula_structural   TeH12(Cl2O3)2
_chemical_formula_sum   'Te4 H48 Cl16 O24'
_cell_volume   1138.08197672
_cell_formula_units_Z   4
loop_
 _symmetry_equiv_pos_site_id
 _symmetry_equiv_pos_as_xyz
  1  'x, y, z'
loop_
 _atom_site_type_symbol
 _atom_site_label
 _atom_site_symmetry_multiplicity
 _atom_site_fract_x
 _atom_site_fract_y
 _atom_site_fract_z
 _atom_site_occupancy
  Te  Te0  1  0.73603900  0.90973500  0.94261200  1
  Te  Te1  1  0.76396100  0.09026500  0.44261200  1
  Te  Te2  1  0.23603900  0.59026500  0.05738800  1
  Te  Te3  1  0.26396100  0.40973500  0.55738800  1
  H  H4  1  0.73537600  0.18310200  0.98398300  1
  H  H5  1  0.76462400  0.81689800  0.48398300  1
  H  H6  1  0.23537600  0.31689800  0.01601700  1
  H  H7  1  0.26462400  0.68310200  0.51601700  1
  H  H8  1  0.75952700  0.38747200  0.04204000  1
  H  H9  1  0.74047300  0.61252800  0.54204000  1
  H  H10  1  0.25952700  0.11252800  0.95796000  1
  H  H11  1  0.24047300  0.88747200  0.45796000  1
  H  H12  1  0.55088100  0.32089900  0.05580200  1
  H  H13  1  0.94911900  0.67910100  0.55580200  1
  H  H14  1  0.05088100  0.17910100  0.94419800  1
  H  H15  1  0.44911900  0.82089900  0.44419800  1
  H  H16  1  0.76496800  0.77426800  0.27163400  1
  H  H17  1  0.73503200  0.22573200  0.77163400  1
  H  H18  1  0.26496800  0.72573200  0.72836600  1
  H  H19  1  0.23503200  0.27426800  0.22836600  1
  H  H20  1  0.78368400  0.76227900  0.35476700  1
  H  H21  1  0.71631600  0.23772100  0.85476700  1
  H  H22  1  0.28368400  0.73772100  0.64523300  1
  H  H23  1  0.21631600  0.26227900  0.14523300  1
  H  H24  1  0.74893000  0.23478100  0.14101000  1
  H  H25  1  0.75107000  0.76521900  0.64101000  1
  H  H26  1  0.24893000  0.26521900  0.85899000  1
  H  H27  1  0.25107000  0.73478100  0.35899000  1
  H  H28  1  0.92623800  0.20082300  0.19301800  1
  H  H29  1  0.57376200  0.79917700  0.69301800  1
  H  H30  1  0.42623800  0.29917700  0.80698200  1
  H  H31  1  0.07376200  0.70082300  0.30698200  1
  H  H32  1  0.50453600  0.42092200  0.30373900  1
  H  H33  1  0.99546400  0.57907800  0.80373900  1
  H  H34  1  0.00453600  0.07907800  0.69626100  1
  H  H35  1  0.49546400  0.92092200  0.19626100  1
  H  H36  1  0.73958400  0.35189500  0.25908800  1
  H  H37  1  0.76041600  0.64810500  0.75908800  1
  H  H38  1  0.23958400  0.14810500  0.74091200  1
  H  H39  1  0.26041600  0.85189500  0.24091200  1
  H  H40  1  0.75723300  0.51512500  0.30015500  1
  H  H41  1  0.74276700  0.48487500  0.80015500  1
  H  H42  1  0.25723300  0.98487500  0.69984500  1
  H  H43  1  0.24276700  0.01512500  0.19984500  1
  H  H44  1  0.28856600  0.54253400  0.30319500  1
  H  H45  1  0.21143400  0.45746600  0.80319500  1
  H  H46  1  0.78856600  0.95746600  0.69680500  1
  H  H47  1  0.71143400  0.04253400  0.19680500  1
  H  H48  1  0.28617000  0.38454600  0.34907100  1
  H  H49  1  0.21383000  0.61545400  0.84907100  1
  H  H50  1  0.78617000  0.11545400  0.65092900  1
  H  H51  1  0.71383000  0.88454600  0.15092900  1
  Cl  Cl52  1  0.95058200  0.91822400  0.05657100  1
  Cl  Cl53  1  0.54941800  0.08177600  0.55657100  1
  Cl  Cl54  1  0.45058200  0.58177600  0.94342900  1
  Cl  Cl55  1  0.04941800  0.41822400  0.44342900  1
  Cl  Cl56  1  0.45458100  0.96804800  0.02703600  1
  Cl  Cl57  1  0.04541900  0.03195200  0.52703600  1
  Cl  Cl58  1  0.95458100  0.53195200  0.97296400  1
  Cl  Cl59  1  0.54541900  0.46804800  0.47296400  1
  Cl  Cl60  1  0.01320000  0.90516900  0.85818400  1
  Cl  Cl61  1  0.48680000  0.09483100  0.35818400  1
  Cl  Cl62  1  0.51320000  0.59483100  0.14181600  1
  Cl  Cl63  1  0.98680000  0.40516900  0.64181600  1
  Cl  Cl64  1  0.50774800  0.94168200  0.84169100  1
  Cl  Cl65  1  0.99225200  0.05831800  0.34169100  1
  Cl  Cl66  1  0.00774800  0.55831800  0.15830900  1
  Cl  Cl67  1  0.49225200  0.44168200  0.65830900  1
  O  O68  1  0.78348900  0.13157100  0.93850200  1
  O  O69  1  0.71651100  0.86842900  0.43850200  1
  O  O70  1  0.28348900  0.36842900  0.06149800  1
  O  O71  1  0.21651100  0.63157100  0.56149800  1
  O  O72  1  0.69034400  0.29293900  0.05404100  1
  O  O73  1  0.80965600  0.70706100  0.55404100  1
  O  O74  1  0.19034400  0.20706100  0.94595900  1
  O  O75  1  0.30965600  0.79293900  0.44595900  1
  O  O76  1  0.81816900  0.70922400  0.30988800  1
  O  O77  1  0.68183100  0.29077600  0.80988800  1
  O  O78  1  0.31816900  0.79077600  0.69011200  1
  O  O79  1  0.18183100  0.20922400  0.19011200  1
  O  O80  1  0.78148000  0.19883300  0.19069300  1
  O  O81  1  0.71852000  0.80116700  0.69069300  1
  O  O82  1  0.28148000  0.30116700  0.80930700  1
  O  O83  1  0.21852000  0.69883300  0.30930700  1
  O  O84  1  0.69427500  0.41333400  0.30013100  1
  O  O85  1  0.80572500  0.58666600  0.80013100  1
  O  O86  1  0.19427500  0.08666600  0.69986900  1
  O  O87  1  0.30572500  0.91333400  0.19986900  1
  O  O88  1  0.33804700  0.42784300  0.30412900  1
  O  O89  1  0.16195300  0.57215700  0.80412900  1
  O  O90  1  0.83804700  0.07215700  0.69587100  1
  O  O91  1  0.66195300  0.92784300  0.19587100  1
