# generated using pymatgen
data_Li3Fe3SbO8
_symmetry_space_group_name_H-M   'P 1'
_cell_length_a   10.58984400
_cell_length_b   6.08514200
_cell_length_c   6.10251553
_cell_angle_alpha   90.00000000
_cell_angle_beta   124.97788060
_cell_angle_gamma   90.00000000
_symmetry_Int_Tables_number   1
_chemical_formula_structural   Li3Fe3SbO8
_chemical_formula_sum   'Li6 Fe6 Sb2 O16'
_cell_volume   322.21892382
_cell_formula_units_Z   2
loop_
 _symmetry_equiv_pos_site_id
 _symmetry_equiv_pos_as_xyz
  1  'x, y, z'
loop_
 _atom_site_type_symbol
 _atom_site_label
 _atom_site_symmetry_multiplicity
 _atom_site_fract_x
 _atom_site_fract_y
 _atom_site_fract_z
 _atom_site_occupancy
  Li  Li0  1  0.25000000  0.75000000  0.00000000  1
  Li  Li1  1  0.00000000  0.00000000  0.50000000  1
  Li  Li2  1  0.25000000  0.25000000  0.00000000  1
  Li  Li3  1  0.75000000  0.25000000  0.00000000  1
  Li  Li4  1  0.50000000  0.50000000  0.50000000  1
  Li  Li5  1  0.75000000  0.75000000  0.00000000  1
  Fe  Fe6  1  0.25000000  0.25000000  0.50000000  1
  Fe  Fe7  1  0.00000000  0.50000000  0.00000000  1
  Fe  Fe8  1  0.25000000  0.75000000  0.50000000  1
  Fe  Fe9  1  0.75000000  0.75000000  0.50000000  1
  Fe  Fe10  1  0.50000000  0.00000000  0.00000000  1
  Fe  Fe11  1  0.75000000  0.25000000  0.50000000  1
  Sb  Sb12  1  0.00000000  0.00000000  0.00000000  1
  Sb  Sb13  1  0.50000000  0.50000000  0.00000000  1
  O  O14  1  0.24881000  0.50000000  0.27995300  1
  O  O15  1  0.49197150  0.73260550  0.76009600  1
  O  O16  1  0.23382200  0.00000000  0.24190700  1
  O  O17  1  0.25119000  0.00000000  0.72004700  1
  O  O18  1  0.49197150  0.26739450  0.76009600  1
  O  O19  1  0.00802850  0.76739450  0.23990400  1
  O  O20  1  0.26617800  0.50000000  0.75809300  1
  O  O21  1  0.00802850  0.23260550  0.23990400  1
  O  O22  1  0.74881000  0.00000000  0.27995300  1
  O  O23  1  0.99197150  0.23260550  0.76009600  1
  O  O24  1  0.73382200  0.50000000  0.24190700  1
  O  O25  1  0.75119000  0.50000000  0.72004700  1
  O  O26  1  0.99197150  0.76739450  0.76009600  1
  O  O27  1  0.50802850  0.26739450  0.23990400  1
  O  O28  1  0.76617800  0.00000000  0.75809300  1
  O  O29  1  0.50802850  0.73260550  0.23990400  1
