# generated using pymatgen
data_MgH40C10Br2(N2O)10
_symmetry_space_group_name_H-M   'P 1'
_cell_length_a   9.87148500
_cell_length_b   7.20174200
_cell_length_c   24.05636989
_cell_angle_alpha   90.00000000
_cell_angle_beta   93.90112203
_cell_angle_gamma   90.00000000
_symmetry_Int_Tables_number   1
_chemical_formula_structural   MgH40C10Br2(N2O)10
_chemical_formula_sum   'Mg2 H80 C20 Br4 N40 O20'
_cell_volume   1706.25010293
_cell_formula_units_Z   2
loop_
 _symmetry_equiv_pos_site_id
 _symmetry_equiv_pos_as_xyz
  1  'x, y, z'
loop_
 _atom_site_type_symbol
 _atom_site_label
 _atom_site_symmetry_multiplicity
 _atom_site_fract_x
 _atom_site_fract_y
 _atom_site_fract_z
 _atom_site_occupancy
  Mg  Mg0  1  0.00000000  0.50000000  0.50000000  1
  Mg  Mg1  1  0.00000000  0.00000000  0.00000000  1
  H  H2  1  0.77117000  0.76128700  0.50600400  1
  H  H3  1  0.22883000  0.26128700  0.99399600  1
  H  H4  1  0.22883000  0.23871300  0.49399600  1
  H  H5  1  0.77117000  0.73871300  0.00600400  1
  H  H6  1  0.67965800  0.87934100  0.55534500  1
  H  H7  1  0.32034200  0.37934100  0.94465500  1
  H  H8  1  0.32034200  0.12065900  0.44465500  1
  H  H9  1  0.67965800  0.62065900  0.05534500  1
  H  H10  1  0.73360600  0.80305500  0.65078100  1
  H  H11  1  0.26639400  0.30305500  0.84921900  1
  H  H12  1  0.26639400  0.19694500  0.34921900  1
  H  H13  1  0.73360600  0.69694500  0.15078100  1
  H  H14  1  0.89250400  0.71702100  0.66918800  1
  H  H15  1  0.10749600  0.21702100  0.83081200  1
  H  H16  1  0.10749600  0.28297900  0.33081200  1
  H  H17  1  0.89250400  0.78297900  0.16918800  1
  H  H18  1  0.73779800  0.83072300  0.37188400  1
  H  H19  1  0.26220200  0.33072300  0.12811600  1
  H  H20  1  0.26220200  0.16927700  0.62811600  1
  H  H21  1  0.73779800  0.66927700  0.87188400  1
  H  H22  1  0.86388500  0.92719000  0.33404400  1
  H  H23  1  0.13611500  0.42719000  0.16595600  1
  H  H24  1  0.13611500  0.07281000  0.66595600  1
  H  H25  1  0.86388500  0.57281000  0.83404400  1
  H  H26  1  0.09224400  0.92151000  0.37275200  1
  H  H27  1  0.90775600  0.42151000  0.12724800  1
  H  H28  1  0.90775600  0.07849000  0.62724800  1
  H  H29  1  0.09224400  0.57849000  0.87275200  1
  H  H30  1  0.13000400  0.79124200  0.43311000  1
  H  H31  1  0.86999600  0.29124200  0.06689000  1
  H  H32  1  0.86999600  0.20875800  0.56689000  1
  H  H33  1  0.13000400  0.70875800  0.93311000  1
  H  H34  1  0.60199800  0.16165300  0.49966500  1
  H  H35  1  0.39800200  0.66165300  0.00033500  1
  H  H36  1  0.39800200  0.83834700  0.50033500  1
  H  H37  1  0.60199800  0.33834700  0.99966500  1
  H  H38  1  0.57049000  0.15651000  0.42753400  1
  H  H39  1  0.42951000  0.65651000  0.07246600  1
  H  H40  1  0.42951000  0.84349000  0.57246600  1
  H  H41  1  0.57049000  0.34349000  0.92753400  1
  H  H42  1  0.85236500  0.42291000  0.39613900  1
  H  H43  1  0.14763500  0.92291000  0.10386100  1
  H  H44  1  0.14763500  0.57709000  0.60386100  1
  H  H45  1  0.85236500  0.07709000  0.89613900  1
  H  H46  1  0.68805900  0.35488100  0.37079500  1
  H  H47  1  0.31194100  0.85488100  0.12920500  1
  H  H48  1  0.31194100  0.64511900  0.62920500  1
  H  H49  1  0.68805900  0.14511900  0.87079500  1
  H  H50  1  0.49934800  0.19481500  0.18459100  1
  H  H51  1  0.50065200  0.69481500  0.31540900  1
  H  H52  1  0.50065200  0.80518500  0.81540900  1
  H  H53  1  0.49934800  0.30518500  0.68459100  1
  H  H54  1  0.50049200  0.42866900  0.17009600  1
  H  H55  1  0.49950800  0.92866900  0.32990400  1
  H  H56  1  0.49950800  0.57133100  0.82990400  1
  H  H57  1  0.50049200  0.07133100  0.67009600  1
  H  H58  1  0.63313800  0.06349500  0.05865900  1
  H  H59  1  0.36686200  0.56349500  0.44134100  1
  H  H60  1  0.36686200  0.93650500  0.94134100  1
  H  H61  1  0.63313800  0.43650500  0.55865900  1
  H  H62  1  0.57005900  0.98499800  0.12071600  1
  H  H63  1  0.42994100  0.48499800  0.37928400  1
  H  H64  1  0.42994100  0.01500200  0.87928400  1
  H  H65  1  0.57005900  0.51500200  0.62071600  1
  H  H66  1  0.28127700  0.51015900  0.73994700  1
  H  H67  1  0.71872300  0.01015900  0.76005300  1
  H  H68  1  0.71872300  0.48984100  0.26005300  1
  H  H69  1  0.28127700  0.98984100  0.23994700  1
  H  H70  1  0.12533400  0.39217600  0.73832500  1
  H  H71  1  0.87466600  0.89217600  0.76167500  1
  H  H72  1  0.87466600  0.60782400  0.26167500  1
  H  H73  1  0.12533400  0.10782400  0.23832500  1
  H  H74  1  0.12642400  0.95607400  0.75255900  1
  H  H75  1  0.87357600  0.45607400  0.74744100  1
  H  H76  1  0.87357600  0.04392600  0.24744100  1
  H  H77  1  0.12642400  0.54392600  0.25255900  1
  H  H78  1  0.28122100  0.83954600  0.74222800  1
  H  H79  1  0.71877900  0.33954600  0.75777200  1
  H  H80  1  0.71877900  0.16045400  0.25777200  1
  H  H81  1  0.28122100  0.66045400  0.24222800  1
  C  C82  1  0.84243600  0.72053300  0.58540300  1
  C  C83  1  0.15756400  0.22053300  0.91459700  1
  C  C84  1  0.15756400  0.27946700  0.41459700  1
  C  C85  1  0.84243600  0.77946700  0.08540300  1
  C  C86  1  0.93080900  0.79497500  0.40772700  1
  C  C87  1  0.06919100  0.29497500  0.09227300  1
  C  C88  1  0.06919100  0.20502500  0.59227300  1
  C  C89  1  0.93080900  0.70502500  0.90772700  1
  C  C90  1  0.74218500  0.29944200  0.45404900  1
  C  C91  1  0.25781500  0.79944200  0.04595100  1
  C  C92  1  0.25781500  0.70055800  0.54595100  1
  C  C93  1  0.74218500  0.20055800  0.95404900  1
  C  C94  1  0.55486600  0.26776400  0.10615800  1
  C  C95  1  0.44513400  0.76776400  0.39384200  1
  C  C96  1  0.44513400  0.73223600  0.89384200  1
  C  C97  1  0.55486600  0.23223600  0.60615800  1
  C  C98  1  0.10948000  0.67410300  0.74403800  1
  C  C99  1  0.89052000  0.17410300  0.75596200  1
  C  C100  1  0.89052000  0.32589700  0.25596200  1
  C  C101  1  0.10948000  0.82589700  0.24403800  1
  Br  Br102  1  0.52168500  0.72626700  0.69843700  1
  Br  Br103  1  0.47831500  0.22626700  0.80156300  1
  Br  Br104  1  0.47831500  0.27373300  0.30156300  1
  Br  Br105  1  0.52168500  0.77373300  0.19843700  1
  N  N106  1  0.74531300  0.77540900  0.54625900  1
  N  N107  1  0.25468700  0.27540900  0.95374100  1
  N  N108  1  0.25468700  0.22459100  0.45374100  1
  N  N109  1  0.74531300  0.72459100  0.04625900  1
  N  N110  1  0.82997500  0.77872500  0.63893400  1
  N  N111  1  0.17002500  0.27872500  0.86106600  1
  N  N112  1  0.17002500  0.22127500  0.36106600  1
  N  N113  1  0.82997500  0.72127500  0.13893400  1
  N  N114  1  0.83696400  0.86551600  0.36960800  1
  N  N115  1  0.16303600  0.36551600  0.13039200  1
  N  N116  1  0.16303600  0.13448400  0.63039200  1
  N  N117  1  0.83696400  0.63448400  0.86960800  1
  N  N118  1  0.06344200  0.82340200  0.40001900  1
  N  N119  1  0.93655800  0.32340200  0.09998100  1
  N  N120  1  0.93655800  0.17659800  0.59998100  1
  N  N121  1  0.06344200  0.67659800  0.90001900  1
  N  N122  1  0.62451000  0.20937700  0.46114000  1
  N  N123  1  0.37549000  0.70937700  0.03886000  1
  N  N124  1  0.37549000  0.79062300  0.53886000  1
  N  N125  1  0.62451000  0.29062300  0.96114000  1
  N  N126  1  0.76269100  0.36026100  0.40219000  1
  N  N127  1  0.23730900  0.86026100  0.09781000  1
  N  N128  1  0.23730900  0.63973900  0.59781000  1
  N  N129  1  0.76269100  0.13973900  0.90219000  1
  N  N130  1  0.49302500  0.29597700  0.15497200  1
  N  N131  1  0.50697500  0.79597700  0.34502800  1
  N  N132  1  0.50697500  0.70402300  0.84502800  1
  N  N133  1  0.49302500  0.20402300  0.65497200  1
  N  N134  1  0.58119300  0.08978300  0.09269900  1
  N  N135  1  0.41880700  0.58978300  0.40730100  1
  N  N136  1  0.41880700  0.91021700  0.90730100  1
  N  N137  1  0.58119300  0.41021700  0.59269900  1
  N  N138  1  0.17822100  0.51440300  0.73649900  1
  N  N139  1  0.82177900  0.01440300  0.76350100  1
  N  N140  1  0.82177900  0.48559700  0.26350100  1
  N  N141  1  0.17822100  0.98559700  0.23649900  1
  N  N142  1  0.17950200  0.83560400  0.74685100  1
  N  N143  1  0.82049800  0.33560400  0.75314900  1
  N  N144  1  0.82049800  0.16439600  0.25314900  1
  N  N145  1  0.17950200  0.66439600  0.24685100  1
  O  O146  1  0.94171200  0.62087400  0.57324600  1
  O  O147  1  0.05828800  0.12087400  0.92675400  1
  O  O148  1  0.05828800  0.37912600  0.42675400  1
  O  O149  1  0.94171200  0.87912600  0.07324600  1
  O  O150  1  0.89343700  0.70199600  0.44904600  1
  O  O151  1  0.10656300  0.20199600  0.05095400  1
  O  O152  1  0.10656300  0.29800400  0.55095400  1
  O  O153  1  0.89343700  0.79800400  0.94904600  1
  O  O154  1  0.82788000  0.32836200  0.49527500  1
  O  O155  1  0.17212000  0.82836200  0.00472500  1
  O  O156  1  0.17212000  0.67163800  0.50472500  1
  O  O157  1  0.82788000  0.17163800  0.99527500  1
  O  O158  1  0.57822800  0.40242900  0.07480200  1
  O  O159  1  0.42177200  0.90242900  0.42519800  1
  O  O160  1  0.42177200  0.59757100  0.92519800  1
  O  O161  1  0.57822800  0.09757100  0.57480200  1
  O  O162  1  0.98088800  0.67227100  0.74738500  1
  O  O163  1  0.01911200  0.17227100  0.75261500  1
  O  O164  1  0.01911200  0.32772900  0.25261500  1
  O  O165  1  0.98088800  0.82772900  0.24738500  1
