# generated using pymatgen
data_Er(BiO2)3
_symmetry_space_group_name_H-M   'P 1'
_cell_length_a   10.14407449
_cell_length_b   10.14407449
_cell_length_c   11.45671752
_cell_angle_alpha   90.00000000
_cell_angle_beta   90.00000000
_cell_angle_gamma   120.00000000
_symmetry_Int_Tables_number   1
_chemical_formula_structural   Er(BiO2)3
_chemical_formula_sum   'Er6 Bi18 O36'
_cell_volume   1020.97638339
_cell_formula_units_Z   6
loop_
 _symmetry_equiv_pos_site_id
 _symmetry_equiv_pos_as_xyz
  1  'x, y, z'
loop_
 _atom_site_type_symbol
 _atom_site_label
 _atom_site_symmetry_multiplicity
 _atom_site_fract_x
 _atom_site_fract_y
 _atom_site_fract_z
 _atom_site_occupancy
  Er  Er0  1  0.00000000  0.00000000  0.00000000  1
  Er  Er1  1  0.00000000  0.00000000  0.50000000  1
  Er  Er2  1  0.66666667  0.33333333  0.33333333  1
  Er  Er3  1  0.66666667  0.33333333  0.83333333  1
  Er  Er4  1  0.33333333  0.66666667  0.66666667  1
  Er  Er5  1  0.33333333  0.66666667  0.16666667  1
  Bi  Bi6  1  0.22177967  0.95938333  0.70899433  1
  Bi  Bi7  1  0.04061667  0.26239633  0.70899433  1
  Bi  Bi8  1  0.26239633  0.22177967  0.29100567  1
  Bi  Bi9  1  0.73760367  0.77822033  0.70899433  1
  Bi  Bi10  1  0.95938333  0.73760367  0.29100567  1
  Bi  Bi11  1  0.77822033  0.04061667  0.29100567  1
  Bi  Bi12  1  0.88844633  0.29271667  0.04232767  1
  Bi  Bi13  1  0.70728333  0.59572967  0.04232767  1
  Bi  Bi14  1  0.92906300  0.55511300  0.62433900  1
  Bi  Bi15  1  0.40427033  0.11155367  0.04232767  1
  Bi  Bi16  1  0.62605000  0.07093700  0.62433900  1
  Bi  Bi17  1  0.44488700  0.37395000  0.62433900  1
  Bi  Bi18  1  0.55511300  0.62605000  0.37566100  1
  Bi  Bi19  1  0.37395000  0.92906300  0.37566100  1
  Bi  Bi20  1  0.59572967  0.88844633  0.95767233  1
  Bi  Bi21  1  0.07093700  0.44488700  0.37566100  1
  Bi  Bi22  1  0.29271667  0.40427033  0.95767233  1
  Bi  Bi23  1  0.11155367  0.70728333  0.95767233  1
  O  O24  1  0.49200300  0.36279000  0.43687000  1
  O  O25  1  0.36279000  0.87078700  0.56313000  1
  O  O26  1  0.18241667  0.15411733  0.62678033  1
  O  O27  1  0.12921300  0.49200300  0.56313000  1
  O  O28  1  0.97170067  0.81758333  0.62678033  1
  O  O29  1  0.15411733  0.97170067  0.37321967  1
  O  O30  1  0.84588267  0.02829933  0.62678033  1
  O  O31  1  0.02829933  0.18241667  0.37321967  1
  O  O32  1  0.87078700  0.50799700  0.43687000  1
  O  O33  1  0.81758333  0.84588267  0.37321967  1
  O  O34  1  0.63721000  0.12921300  0.43687000  1
  O  O35  1  0.50799700  0.63721000  0.56313000  1
  O  O36  1  0.15866967  0.69612333  0.77020333  1
  O  O37  1  0.02945667  0.20412033  0.89646333  1
  O  O38  1  0.84908333  0.48745067  0.96011367  1
  O  O39  1  0.79587967  0.82533633  0.89646333  1
  O  O40  1  0.63836733  0.15091667  0.96011367  1
  O  O41  1  0.82078400  0.30503400  0.70655300  1
  O  O42  1  0.51254933  0.36163267  0.96011367  1
  O  O43  1  0.69496600  0.51575000  0.70655300  1
  O  O44  1  0.53745367  0.84133033  0.77020333  1
  O  O45  1  0.48425000  0.17921600  0.70655300  1
  O  O46  1  0.30387667  0.46254633  0.77020333  1
  O  O47  1  0.17466367  0.97054333  0.89646333  1
  O  O48  1  0.82533633  0.02945667  0.10353667  1
  O  O49  1  0.69612333  0.53745367  0.22979667  1
  O  O50  1  0.51575000  0.82078400  0.29344700  1
  O  O51  1  0.46254633  0.15866967  0.22979667  1
  O  O52  1  0.30503400  0.48425000  0.29344700  1
  O  O53  1  0.48745067  0.63836733  0.03988633  1
  O  O54  1  0.17921600  0.69496600  0.29344700  1
  O  O55  1  0.36163267  0.84908333  0.03988633  1
  O  O56  1  0.20412033  0.17466367  0.10353667  1
  O  O57  1  0.15091667  0.51254933  0.03988633  1
  O  O58  1  0.97054333  0.79587967  0.10353667  1
  O  O59  1  0.84133033  0.30387667  0.22979667  1
