# generated using pymatgen
data_ZnGaP2H4NO8
_symmetry_space_group_name_H-M   'P 1'
_cell_length_a   9.16259800
_cell_length_b   9.47762105
_cell_length_c   9.48560581
_cell_angle_alpha   89.09767602
_cell_angle_beta   97.73723056
_cell_angle_gamma   96.92691363
_symmetry_Int_Tables_number   1
_chemical_formula_structural   ZnGaP2H4NO8
_chemical_formula_sum   'Zn4 Ga4 P8 H16 N4 O32'
_cell_volume   810.26934247
_cell_formula_units_Z   4
loop_
 _symmetry_equiv_pos_site_id
 _symmetry_equiv_pos_as_xyz
  1  'x, y, z'
loop_
 _atom_site_type_symbol
 _atom_site_label
 _atom_site_symmetry_multiplicity
 _atom_site_fract_x
 _atom_site_fract_y
 _atom_site_fract_z
 _atom_site_occupancy
  Zn  Zn0  1  0.07200500  0.96041600  0.20472500  1
  Zn  Zn1  1  0.43590800  0.80001200  0.04278200  1
  Zn  Zn2  1  0.56280900  0.20351000  0.95867900  1
  Zn  Zn3  1  0.88105900  0.57218000  0.68475500  1
  Ga  Ga4  1  0.11401300  0.42567600  0.31365000  1
  Ga  Ga5  1  0.38481100  0.68627200  0.57252500  1
  Ga  Ga6  1  0.61598900  0.31398000  0.43349500  1
  Ga  Ga7  1  0.93354000  0.04183400  0.79587900  1
  P  P8  1  0.08021800  0.78572600  0.91622600  1
  P  P9  1  0.04522400  0.71244300  0.44141800  1
  P  P10  1  0.45341400  0.55618100  0.28924000  1
  P  P11  1  0.58524600  0.91320200  0.78827700  1
  P  P12  1  0.41902800  0.08901200  0.21612400  1
  P  P13  1  0.54053800  0.44493800  0.71190100  1
  P  P14  1  0.95516300  0.28567100  0.56157700  1
  P  P15  1  0.91489100  0.21205700  0.08683400  1
  H  H16  1  0.13050800  0.36424300  0.89204300  1
  H  H17  1  0.20543300  0.53110700  0.93711500  1
  H  H18  1  0.23003700  0.97254200  0.60896800  1
  H  H19  1  0.19569400  0.13875900  0.57484900  1
  H  H20  1  0.30751800  0.42412200  0.86261100  1
  H  H21  1  0.27064400  0.38905700  0.02692200  1
  H  H22  1  0.29313600  0.06157200  0.46778500  1
  H  H23  1  0.37109600  0.10383000  0.63914800  1
  H  H24  1  0.63021200  0.89593900  0.35802900  1
  H  H25  1  0.70495700  0.93764900  0.52750300  1
  H  H26  1  0.72991400  0.61090200  0.97068600  1
  H  H27  1  0.69374500  0.57760200  0.13620200  1
  H  H28  1  0.80604800  0.85905000  0.42441200  1
  H  H29  1  0.77070600  0.02603100  0.38792000  1
  H  H30  1  0.79356300  0.46982600  0.06070400  1
  H  H31  1  0.86979400  0.63957100  0.10364000  1
  N  N32  1  0.22769500  0.42684300  0.92939700  1
  N  N33  1  0.27387100  0.06978000  0.57349100  1
  N  N34  1  0.72753800  0.92878500  0.42430600  1
  N  N35  1  0.77271600  0.57479100  0.06895200  1
  O  O36  1  0.07137300  0.91450400  0.80706700  1
  O  O37  1  0.03707100  0.86134300  0.38060400  1
  O  O38  1  0.02002800  0.82664600  0.05213100  1
  O  O39  1  0.05030400  0.60292600  0.31926000  1
  O  O40  1  0.02513000  0.34557800  0.14325200  1
  O  O41  1  0.09065100  0.31737300  0.47606400  1
  O  O42  1  0.18656400  0.71027600  0.55403000  1
  O  O43  1  0.24124900  0.75086100  0.93861800  1
  O  O44  1  0.26536700  0.06133500  0.26744500  1
  O  O45  1  0.31370500  0.44531900  0.29228100  1
  O  O46  1  0.39474300  0.51727200  0.66798600  1
  O  O47  1  0.49098900  0.85103400  0.64744600  1
  O  O48  1  0.45373900  0.67799700  0.39756600  1
  O  O49  1  0.48218300  0.95138700  0.18166700  1
  O  O50  1  0.58667200  0.80656000  0.91088200  1
  O  O51  1  0.52166300  0.38007900  0.85752500  1
  O  O52  1  0.46849700  0.61771100  0.14226400  1
  O  O53  1  0.41680800  0.19523400  0.09155100  1
  O  O54  1  0.52165900  0.05069200  0.81878400  1
  O  O55  1  0.54280900  0.32091300  0.60457900  1
  O  O56  1  0.52426900  0.14915300  0.35231800  1
  O  O57  1  0.59334600  0.47694100  0.32988000  1
  O  O58  1  0.67351100  0.55795800  0.70995200  1
  O  O59  1  0.74495500  0.94894000  0.74347600  1
  O  O60  1  0.76248600  0.26510100  0.05409700  1
  O  O61  1  0.81394200  0.28461900  0.45050800  1
  O  O62  1  0.90418700  0.67426000  0.51127400  1
  O  O63  1  0.98327600  0.65039300  0.85934400  1
  O  O64  1  0.96072300  0.38855200  0.68402100  1
  O  O65  1  0.97294700  0.17098100  0.94485600  1
  O  O66  1  0.96913300  0.13327300  0.62326200  1
  O  O67  1  0.91733400  0.08967900  0.19324200  1
