# generated using pymatgen
data_AlH18CS2N3O14
_symmetry_space_group_name_H-M   'P 1'
_cell_length_a   11.82630786
_cell_length_b   11.82630786
_cell_length_c   9.08027300
_cell_angle_alpha   90.00000000
_cell_angle_beta   90.00000000
_cell_angle_gamma   120.00000000
_symmetry_Int_Tables_number   1
_chemical_formula_structural   AlH18CS2N3O14
_chemical_formula_sum   'Al3 H54 C3 S6 N9 O42'
_cell_volume   1099.83591687
_cell_formula_units_Z   3
loop_
 _symmetry_equiv_pos_site_id
 _symmetry_equiv_pos_as_xyz
  1  'x, y, z'
loop_
 _atom_site_type_symbol
 _atom_site_label
 _atom_site_symmetry_multiplicity
 _atom_site_fract_x
 _atom_site_fract_y
 _atom_site_fract_z
 _atom_site_occupancy
  Al  Al0  1  0.00000000  0.00000000  0.99737700  1
  Al  Al1  1  0.66666667  0.33333333  0.05814300  1
  Al  Al2  1  0.33333333  0.66666667  0.05814300  1
  H  H3  1  0.80107300  0.88672100  0.50239000  1
  H  H4  1  0.08564800  0.19892700  0.50239000  1
  H  H5  1  0.11327900  0.91435200  0.50239000  1
  H  H6  1  0.19892700  0.08564800  0.50239000  1
  H  H7  1  0.88672100  0.80107300  0.50239000  1
  H  H8  1  0.91435200  0.11327900  0.50239000  1
  H  H9  1  0.43463900  0.86654400  0.55194500  1
  H  H10  1  0.43190500  0.56536100  0.55194500  1
  H  H11  1  0.13345600  0.56809500  0.55194500  1
  H  H12  1  0.56536100  0.43190500  0.55194500  1
  H  H13  1  0.86654400  0.43463900  0.55194500  1
  H  H14  1  0.56809500  0.13345600  0.55194500  1
  H  H15  1  0.53124600  0.79384800  0.55554300  1
  H  H16  1  0.26260200  0.46875400  0.55554300  1
  H  H17  1  0.20615200  0.73739800  0.55554300  1
  H  H18  1  0.46875400  0.26260200  0.55554300  1
  H  H19  1  0.79384800  0.53124600  0.55554300  1
  H  H20  1  0.73739800  0.20615200  0.55554300  1
  H  H21  1  0.79061700  0.91814000  0.84083800  1
  H  H22  1  0.12752300  0.20938300  0.84083800  1
  H  H23  1  0.08186000  0.87247700  0.84083800  1
  H  H24  1  0.20938300  0.12752300  0.84083800  1
  H  H25  1  0.91814000  0.79061700  0.84083800  1
  H  H26  1  0.87247700  0.08186000  0.84083800  1
  H  H27  1  0.79505700  0.87472500  0.16572700  1
  H  H28  1  0.07966800  0.20494300  0.16572700  1
  H  H29  1  0.12527500  0.92033200  0.16572700  1
  H  H30  1  0.20494300  0.07966800  0.16572700  1
  H  H31  1  0.87472500  0.79505700  0.16572700  1
  H  H32  1  0.92033200  0.12527500  0.16572700  1
  H  H33  1  0.53515400  0.79084000  0.89099100  1
  H  H34  1  0.25568600  0.46484600  0.89099100  1
  H  H35  1  0.20916000  0.74431400  0.89099100  1
  H  H36  1  0.46484600  0.25568600  0.89099100  1
  H  H37  1  0.79084000  0.53515400  0.89099100  1
  H  H38  1  0.74431400  0.20916000  0.89099100  1
  H  H39  1  0.46089100  0.87756700  0.89751800  1
  H  H40  1  0.41667600  0.53910900  0.89751800  1
  H  H41  1  0.12243300  0.58332400  0.89751800  1
  H  H42  1  0.53910900  0.41667600  0.89751800  1
  H  H43  1  0.87756700  0.46089100  0.89751800  1
  H  H44  1  0.58332400  0.12243300  0.89751800  1
  H  H45  1  0.54372900  0.74491100  0.21207500  1
  H  H46  1  0.20118200  0.45627100  0.21207500  1
  H  H47  1  0.25508900  0.79881800  0.21207500  1
  H  H48  1  0.45627100  0.20118200  0.21207500  1
  H  H49  1  0.74491100  0.54372900  0.21207500  1
  H  H50  1  0.79881800  0.25508900  0.21207500  1
  H  H51  1  0.45576000  0.58149800  0.21721600  1
  H  H52  1  0.12573800  0.54424000  0.21721600  1
  H  H53  1  0.41850200  0.87426200  0.21721600  1
  H  H54  1  0.54424000  0.12573800  0.21721600  1
  H  H55  1  0.58149800  0.45576000  0.21721600  1
  H  H56  1  0.87426200  0.41850200  0.21721600  1
  C  C57  1  0.00000000  0.00000000  0.50673600  1
  C  C58  1  0.66666667  0.33333333  0.55358900  1
  C  C59  1  0.33333333  0.66666667  0.55358900  1
  S  S60  1  0.34485200  0.00000000  0.75669700  1
  S  S61  1  0.65514800  0.65514800  0.75669700  1
  S  S62  1  0.00000000  0.34485200  0.75669700  1
  S  S63  1  0.68075800  0.00000000  0.31385600  1
  S  S64  1  0.31924200  0.31924200  0.31385600  1
  S  S65  1  0.00000000  0.68075800  0.31385600  1
  N  N66  1  0.11298600  0.00000000  0.50752400  1
  N  N67  1  0.88701400  0.88701400  0.50752400  1
  N  N68  1  0.00000000  0.11298600  0.50752400  1
  N  N69  1  0.21605200  0.65692900  0.55333800  1
  N  N70  1  0.44087700  0.78394800  0.55333800  1
  N  N71  1  0.34307100  0.55912300  0.55333800  1
  N  N72  1  0.78394800  0.44087700  0.55333800  1
  N  N73  1  0.65692900  0.21605200  0.55333800  1
  N  N74  1  0.55912300  0.34307100  0.55333800  1
  O  O75  1  0.45171000  0.00000000  0.84725800  1
  O  O76  1  0.54829000  0.54829000  0.84725800  1
  O  O77  1  0.00000000  0.45171000  0.84725800  1
  O  O78  1  0.55616400  0.00000000  0.28398500  1
  O  O79  1  0.44383600  0.44383600  0.28398500  1
  O  O80  1  0.00000000  0.55616400  0.28398500  1
  O  O81  1  0.37302600  0.00000000  0.59749400  1
  O  O82  1  0.62697400  0.62697400  0.59749400  1
  O  O83  1  0.00000000  0.37302600  0.59749400  1
  O  O84  1  0.70320100  0.00000000  0.47400500  1
  O  O85  1  0.29679900  0.29679900  0.47400500  1
  O  O86  1  0.00000000  0.70320100  0.47400500  1
  O  O87  1  0.66086700  0.78095000  0.79564900  1
  O  O88  1  0.12008300  0.33913300  0.79564900  1
  O  O89  1  0.21905000  0.87991700  0.79564900  1
  O  O90  1  0.33913300  0.12008300  0.79564900  1
  O  O91  1  0.78095000  0.66086700  0.79564900  1
  O  O92  1  0.87991700  0.21905000  0.79564900  1
  O  O93  1  0.67344200  0.88125300  0.24445600  1
  O  O94  1  0.20781100  0.32655800  0.24445600  1
  O  O95  1  0.11874700  0.79218900  0.24445600  1
  O  O96  1  0.32655800  0.20781100  0.24445600  1
  O  O97  1  0.88125300  0.67344200  0.24445600  1
  O  O98  1  0.79218900  0.11874700  0.24445600  1
  O  O99  1  0.13412400  0.00000000  0.11573300  1
  O  O100  1  0.86587600  0.86587600  0.11573300  1
  O  O101  1  0.00000000  0.13412400  0.11573300  1
  O  O102  1  0.86698500  0.00000000  0.88070600  1
  O  O103  1  0.13301500  0.13301500  0.88070600  1
  O  O104  1  0.00000000  0.86698500  0.88070600  1
  O  O105  1  0.19799900  0.66502700  0.94173200  1
  O  O106  1  0.46702800  0.80200100  0.94173200  1
  O  O107  1  0.33497300  0.53297200  0.94173200  1
  O  O108  1  0.80200100  0.46702800  0.94173200  1
  O  O109  1  0.66502700  0.19799900  0.94173200  1
  O  O110  1  0.53297200  0.33497300  0.94173200  1
  O  O111  1  0.33633800  0.80027100  0.17602200  1
  O  O112  1  0.46393300  0.66366200  0.17602200  1
  O  O113  1  0.19972900  0.53606700  0.17602200  1
  O  O114  1  0.66366200  0.46393300  0.17602200  1
  O  O115  1  0.80027100  0.33633800  0.17602200  1
  O  O116  1  0.53606700  0.19972900  0.17602200  1
