# generated using pymatgen
data_Na4P4H2O13
_symmetry_space_group_name_H-M   'P 1'
_cell_length_a   6.34688200
_cell_length_b   13.61174900
_cell_length_c   13.80604400
_cell_angle_alpha   90.00000000
_cell_angle_beta   90.00000000
_cell_angle_gamma   90.00000000
_symmetry_Int_Tables_number   1
_chemical_formula_structural   Na4P4H2O13
_chemical_formula_sum   'Na16 P16 H8 O52'
_cell_volume   1192.73402733
_cell_formula_units_Z   4
loop_
 _symmetry_equiv_pos_site_id
 _symmetry_equiv_pos_as_xyz
  1  'x, y, z'
loop_
 _atom_site_type_symbol
 _atom_site_label
 _atom_site_symmetry_multiplicity
 _atom_site_fract_x
 _atom_site_fract_y
 _atom_site_fract_z
 _atom_site_occupancy
  Na  Na0  1  0.65997400  0.78767400  0.52539800  1
  Na  Na1  1  0.15997400  0.71232600  0.47460200  1
  Na  Na2  1  0.84002600  0.21232600  0.02539800  1
  Na  Na3  1  0.34002600  0.28767400  0.97460200  1
  Na  Na4  1  0.85910700  0.79062000  0.02802200  1
  Na  Na5  1  0.35910700  0.70938000  0.97197800  1
  Na  Na6  1  0.64089300  0.20938000  0.52802200  1
  Na  Na7  1  0.14089300  0.29062000  0.47197800  1
  Na  Na8  1  0.88169500  0.99548700  0.41601300  1
  Na  Na9  1  0.38169500  0.50451300  0.58398700  1
  Na  Na10  1  0.61830500  0.00451300  0.91601300  1
  Na  Na11  1  0.11830500  0.49548700  0.08398700  1
  Na  Na12  1  0.60233800  0.80188600  0.76455100  1
  Na  Na13  1  0.10233800  0.69811400  0.23544900  1
  Na  Na14  1  0.89766200  0.19811400  0.26455100  1
  Na  Na15  1  0.39766200  0.30188600  0.73544900  1
  P  P16  1  0.38819500  0.10764500  0.33228100  1
  P  P17  1  0.88819500  0.39235500  0.66771900  1
  P  P18  1  0.11180500  0.89235500  0.83228100  1
  P  P19  1  0.61180500  0.60764500  0.16771900  1
  P  P20  1  0.40250700  0.88920400  0.33149500  1
  P  P21  1  0.90250700  0.61079600  0.66850500  1
  P  P22  1  0.09749300  0.11079600  0.83149500  1
  P  P23  1  0.59749300  0.38920400  0.16850500  1
  P  P24  1  0.36803300  0.89021500  0.11374100  1
  P  P25  1  0.86803300  0.60978500  0.88625900  1
  P  P26  1  0.13196700  0.10978500  0.61374100  1
  P  P27  1  0.63196700  0.39021500  0.38625900  1
  P  P28  1  0.34439700  0.11085900  0.11451400  1
  P  P29  1  0.84439700  0.38914100  0.88548600  1
  P  P30  1  0.15560300  0.88914100  0.61451400  1
  P  P31  1  0.65560300  0.61085900  0.38548600  1
  H  H32  1  0.74775500  0.98263000  0.22012900  1
  H  H33  1  0.24775500  0.51737000  0.77987100  1
  H  H34  1  0.75224500  0.01737000  0.72012900  1
  H  H35  1  0.25224500  0.48263000  0.27987100  1
  H  H36  1  0.99060100  0.97118600  0.21133400  1
  H  H37  1  0.49060100  0.52881400  0.78866600  1
  H  H38  1  0.50939900  0.02881400  0.71133400  1
  H  H39  1  0.00939900  0.47118600  0.28866600  1
  O  O40  1  0.58680500  0.11411000  0.39046800  1
  O  O41  1  0.08680500  0.38589000  0.60953200  1
  O  O42  1  0.91319500  0.88589000  0.89046800  1
  O  O43  1  0.41319500  0.61411000  0.10953200  1
  O  O44  1  0.20881000  0.17650200  0.35033800  1
  O  O45  1  0.70881000  0.32349800  0.64966200  1
  O  O46  1  0.29119000  0.82349800  0.85033800  1
  O  O47  1  0.79119000  0.67650200  0.14966200  1
  O  O48  1  0.59634500  0.88676200  0.39269800  1
  O  O49  1  0.09634500  0.61323800  0.60730200  1
  O  O50  1  0.90365500  0.11323800  0.89269800  1
  O  O51  1  0.40365500  0.38676200  0.10730200  1
  O  O52  1  0.23088400  0.81521700  0.34312900  1
  O  O53  1  0.73088400  0.68478300  0.65687100  1
  O  O54  1  0.26911600  0.18478300  0.84312900  1
  O  O55  1  0.76911600  0.31521700  0.15687100  1
  O  O56  1  0.18729600  0.81885600  0.11157000  1
  O  O57  1  0.68729600  0.68114400  0.88843000  1
  O  O58  1  0.31270400  0.18114400  0.61157000  1
  O  O59  1  0.81270400  0.31885600  0.38843000  1
  O  O60  1  0.54131600  0.88158900  0.04037600  1
  O  O61  1  0.04131600  0.61841100  0.95962400  1
  O  O62  1  0.95868400  0.11841100  0.54037600  1
  O  O63  1  0.45868400  0.38158900  0.45962400  1
  O  O64  1  0.15409100  0.17563800  0.11268100  1
  O  O65  1  0.65409100  0.32436200  0.88731900  1
  O  O66  1  0.34590900  0.82436200  0.61268100  1
  O  O67  1  0.84590900  0.67563800  0.38731900  1
  O  O68  1  0.51437500  0.12454600  0.04013700  1
  O  O69  1  0.01437500  0.37545400  0.95986300  1
  O  O70  1  0.98562500  0.87545400  0.54013700  1
  O  O71  1  0.48562500  0.62454600  0.45986300  1
  O  O72  1  0.48720800  0.89009200  0.21867700  1
  O  O73  1  0.98720800  0.60990800  0.78132300  1
  O  O74  1  0.01279200  0.10990800  0.71867700  1
  O  O75  1  0.51279200  0.39009200  0.28132300  1
  O  O76  1  0.46422500  0.11322500  0.21926400  1
  O  O77  1  0.96422500  0.38677500  0.78073600  1
  O  O78  1  0.03577500  0.88677500  0.71926400  1
  O  O79  1  0.53577500  0.61322500  0.28073600  1
  O  O80  1  0.25658200  0.99769800  0.11144000  1
  O  O81  1  0.75658200  0.50230200  0.88856000  1
  O  O82  1  0.24341800  0.00230200  0.61144000  1
  O  O83  1  0.74341800  0.49769800  0.38856000  1
  O  O84  1  0.28675900  0.99690100  0.33898900  1
  O  O85  1  0.78675900  0.50309900  0.66101100  1
  O  O86  1  0.21324100  0.00309900  0.83898900  1
  O  O87  1  0.71324100  0.49690100  0.16101100  1
  O  O88  1  0.88077400  0.01325900  0.23852000  1
  O  O89  1  0.38077400  0.48674100  0.76148000  1
  O  O90  1  0.61922600  0.98674100  0.73852000  1
  O  O91  1  0.11922600  0.51325900  0.26148000  1
