# generated using pymatgen
data_K2OsO5
_symmetry_space_group_name_H-M   'P 1'
_cell_length_a   10.92034955
_cell_length_b   10.92034955
_cell_length_c   8.29805400
_cell_angle_alpha   90.00000000
_cell_angle_beta   90.00000000
_cell_angle_gamma   120.00000000
_symmetry_Int_Tables_number   1
_chemical_formula_structural   K2OsO5
_chemical_formula_sum   'K12 Os6 O30'
_cell_volume   856.99831568
_cell_formula_units_Z   6
loop_
 _symmetry_equiv_pos_site_id
 _symmetry_equiv_pos_as_xyz
  1  'x, y, z'
loop_
 _atom_site_type_symbol
 _atom_site_label
 _atom_site_symmetry_multiplicity
 _atom_site_fract_x
 _atom_site_fract_y
 _atom_site_fract_z
 _atom_site_occupancy
  K  K0  1  0.96160000  0.29812900  0.50000000  1
  K  K1  1  0.70187100  0.66347100  0.50000000  1
  K  K2  1  0.00000000  0.00000000  0.75807300  1
  K  K3  1  0.66666667  0.33333333  0.75308400  1
  K  K4  1  0.66666667  0.33333333  0.24691600  1
  K  K5  1  0.00000000  0.00000000  0.24192700  1
  K  K6  1  0.03103900  0.66435300  0.00000000  1
  K  K7  1  0.33652900  0.03840000  0.50000000  1
  K  K8  1  0.33333333  0.66666667  0.25851100  1
  K  K9  1  0.33333333  0.66666667  0.74148900  1
  K  K10  1  0.63331400  0.96896100  0.00000000  1
  K  K11  1  0.33564700  0.36668600  0.00000000  1
  Os  Os12  1  0.96787100  0.30079200  0.00000000  1
  Os  Os13  1  0.69920800  0.66707900  0.00000000  1
  Os  Os14  1  0.02985100  0.65414300  0.50000000  1
  Os  Os15  1  0.33292100  0.03212900  0.00000000  1
  Os  Os16  1  0.34585700  0.37570800  0.50000000  1
  Os  Os17  1  0.62429200  0.97014900  0.50000000  1
  O  O18  1  0.68452200  0.15953400  0.50000000  1
  O  O19  1  0.88251300  0.21393200  0.81591900  1
  O  O20  1  0.88251300  0.21393200  0.18408100  1
  O  O21  1  0.80083600  0.99762300  0.50000000  1
  O  O22  1  0.79772300  0.86142800  0.00000000  1
  O  O23  1  0.78606800  0.66858100  0.18408100  1
  O  O24  1  0.78606800  0.66858100  0.81591900  1
  O  O25  1  0.06370500  0.20227700  0.00000000  1
  O  O26  1  0.84046600  0.52498800  0.50000000  1
  O  O27  1  0.00237700  0.80321300  0.50000000  1
  O  O28  1  0.19678700  0.19916400  0.50000000  1
  O  O29  1  0.13857200  0.93629500  0.00000000  1
  O  O30  1  0.86816400  0.39398200  0.00000000  1
  O  O31  1  0.04462100  0.58188200  0.31188900  1
  O  O32  1  0.04462100  0.58188200  0.68811100  1
  O  O33  1  0.33141900  0.11748700  0.18408100  1
  O  O34  1  0.33141900  0.11748700  0.81591900  1
  O  O35  1  0.47501200  0.31547800  0.50000000  1
  O  O36  1  0.22253400  0.76790400  0.50000000  1
  O  O37  1  0.13279200  0.46490600  0.00000000  1
  O  O38  1  0.33211400  0.86720800  0.00000000  1
  O  O39  1  0.52581800  0.13183600  0.00000000  1
  O  O40  1  0.23209600  0.45463000  0.50000000  1
  O  O41  1  0.53726100  0.95537900  0.31188900  1
  O  O42  1  0.53726100  0.95537900  0.68811100  1
  O  O43  1  0.54537000  0.77746600  0.50000000  1
  O  O44  1  0.41811800  0.46273900  0.31188900  1
  O  O45  1  0.41811800  0.46273900  0.68811100  1
  O  O46  1  0.53509400  0.66788600  0.00000000  1
  O  O47  1  0.60601800  0.47418200  0.00000000  1
