# generated using pymatgen
data_LiSi2BiO6
_symmetry_space_group_name_H-M   'P 1'
_cell_length_a   10.07136400
_cell_length_b   9.38105400
_cell_length_c   5.29160246
_cell_angle_alpha   90.00000000
_cell_angle_beta   105.60762450
_cell_angle_gamma   90.00000000
_symmetry_Int_Tables_number   1
_chemical_formula_structural   LiSi2BiO6
_chemical_formula_sum   'Li4 Si8 Bi4 O24'
_cell_volume   481.51585693
_cell_formula_units_Z   4
loop_
 _symmetry_equiv_pos_site_id
 _symmetry_equiv_pos_as_xyz
  1  'x, y, z'
loop_
 _atom_site_type_symbol
 _atom_site_label
 _atom_site_symmetry_multiplicity
 _atom_site_fract_x
 _atom_site_fract_y
 _atom_site_fract_z
 _atom_site_occupancy
  Li  Li0  1  0.00000000  0.08908400  0.75000000  1
  Li  Li1  1  0.00000000  0.91091600  0.25000000  1
  Li  Li2  1  0.50000000  0.58908400  0.75000000  1
  Li  Li3  1  0.50000000  0.41091600  0.25000000  1
  Si  Si4  1  0.21565300  0.40885600  0.76840600  1
  Si  Si5  1  0.21565300  0.59114400  0.26840600  1
  Si  Si6  1  0.78434700  0.40885600  0.73159400  1
  Si  Si7  1  0.78434700  0.59114400  0.23159400  1
  Si  Si8  1  0.71565300  0.90885600  0.76840600  1
  Si  Si9  1  0.71565300  0.09114400  0.26840600  1
  Si  Si10  1  0.28434700  0.90885600  0.73159400  1
  Si  Si11  1  0.28434700  0.09114400  0.23159400  1
  Bi  Bi12  1  0.00000000  0.72781100  0.75000000  1
  Bi  Bi13  1  0.00000000  0.27218900  0.25000000  1
  Bi  Bi14  1  0.50000000  0.22781100  0.75000000  1
  Bi  Bi15  1  0.50000000  0.77218900  0.25000000  1
  O  O16  1  0.38479650  0.40685450  0.85441600  1
  O  O17  1  0.38479650  0.59314550  0.35441600  1
  O  O18  1  0.14072450  0.25790850  0.67937500  1
  O  O19  1  0.16094950  0.47854450  0.01304200  1
  O  O20  1  0.14072450  0.74209150  0.17937500  1
  O  O21  1  0.16094950  0.52145550  0.51304200  1
  O  O22  1  0.83905050  0.47854450  0.48695800  1
  O  O23  1  0.85927550  0.25790850  0.82062500  1
  O  O24  1  0.83905050  0.52145550  0.98695800  1
  O  O25  1  0.85927550  0.74209150  0.32062500  1
  O  O26  1  0.61520350  0.40685450  0.64558400  1
  O  O27  1  0.61520350  0.59314550  0.14558400  1
  O  O28  1  0.88479650  0.90685450  0.85441600  1
  O  O29  1  0.88479650  0.09314550  0.35441600  1
  O  O30  1  0.64072450  0.75790850  0.67937500  1
  O  O31  1  0.66094950  0.97854450  0.01304200  1
  O  O32  1  0.64072450  0.24209150  0.17937500  1
  O  O33  1  0.66094950  0.02145550  0.51304200  1
  O  O34  1  0.33905050  0.97854450  0.48695800  1
  O  O35  1  0.35927550  0.75790850  0.82062500  1
  O  O36  1  0.33905050  0.02145550  0.98695800  1
  O  O37  1  0.35927550  0.24209150  0.32062500  1
  O  O38  1  0.11520350  0.90685450  0.64558400  1
  O  O39  1  0.11520350  0.09314550  0.14558400  1
