# generated using pymatgen
data_CoPO4
_symmetry_space_group_name_H-M   'P 1'
_cell_length_a   14.02849474
_cell_length_b   14.02849474
_cell_length_c   9.19700648
_cell_angle_alpha   90.00000000
_cell_angle_beta   90.00000000
_cell_angle_gamma   120.00000000
_symmetry_Int_Tables_number   1
_chemical_formula_structural   CoPO4
_chemical_formula_sum   'Co18 P18 O72'
_cell_volume   1567.47012268
_cell_formula_units_Z   18
loop_
 _symmetry_equiv_pos_site_id
 _symmetry_equiv_pos_as_xyz
  1  'x, y, z'
loop_
 _atom_site_type_symbol
 _atom_site_label
 _atom_site_symmetry_multiplicity
 _atom_site_fract_x
 _atom_site_fract_y
 _atom_site_fract_z
 _atom_site_occupancy
  Co  Co0  1  0.80091933  0.01630267  0.25609867  1
  Co  Co1  1  0.20025233  0.99216167  0.75532067  1
  Co  Co2  1  0.79190933  0.79974767  0.75532067  1
  Co  Co3  1  0.21538333  0.19908067  0.25609867  1
  Co  Co4  1  0.98369733  0.78461667  0.25609867  1
  Co  Co5  1  0.00783833  0.20809067  0.75532067  1
  Co  Co6  1  0.46758600  0.34963600  0.58943200  1
  Co  Co7  1  0.86691900  0.32549500  0.08865400  1
  Co  Co8  1  0.45857600  0.13308100  0.08865400  1
  Co  Co9  1  0.88205000  0.53241400  0.58943200  1
  Co  Co10  1  0.65036400  0.11795000  0.58943200  1
  Co  Co11  1  0.67450500  0.54142400  0.08865400  1
  Co  Co12  1  0.13425267  0.68296933  0.92276533  1
  Co  Co13  1  0.53358567  0.65882833  0.42198733  1
  Co  Co14  1  0.12524267  0.46641433  0.42198733  1
  Co  Co15  1  0.54871667  0.86574733  0.92276533  1
  Co  Co16  1  0.31703067  0.45128333  0.92276533  1
  Co  Co17  1  0.34117167  0.87475733  0.42198733  1
  P  P18  1  0.01399133  0.21088767  0.41523067  1
  P  P19  1  0.78911233  0.80310367  0.41523067  1
  P  P20  1  0.13404467  0.67217333  0.58239533  1
  P  P21  1  0.53812867  0.86595533  0.58239533  1
  P  P22  1  0.32782667  0.46187133  0.58239533  1
  P  P23  1  0.19689633  0.98600867  0.41523067  1
  P  P24  1  0.68065800  0.54422100  0.74856400  1
  P  P25  1  0.45577900  0.13643700  0.74856400  1
  P  P26  1  0.80071133  0.00550667  0.91572867  1
  P  P27  1  0.20479533  0.19928867  0.91572867  1
  P  P28  1  0.99449333  0.79520467  0.91572867  1
  P  P29  1  0.86356300  0.31934200  0.74856400  1
  P  P30  1  0.34732467  0.87755433  0.08189733  1
  P  P31  1  0.12244567  0.46977033  0.08189733  1
  P  P32  1  0.46737800  0.33884000  0.24906200  1
  P  P33  1  0.87146200  0.53262200  0.24906200  1
  P  P34  1  0.66116000  0.12853800  0.24906200  1
  P  P35  1  0.53022967  0.65267533  0.08189733  1
  O  O36  1  0.08968000  0.20494300  0.29830500  1
  O  O37  1  0.22050867  0.10522733  0.39555033  1
  O  O38  1  0.01243833  0.32055067  0.40230467  1
  O  O39  1  0.61185200  0.13244800  0.39807800  1
  O  O40  1  0.14730667  0.94352433  0.56822333  1
  O  O41  1  0.30811233  0.98756167  0.40230467  1
  O  O42  1  0.79505700  0.88473700  0.29830500  1
  O  O43  1  0.88471867  0.77949133  0.39555033  1
  O  O44  1  0.64342633  0.98170867  0.57484667  1
  O  O45  1  0.01829133  0.66171767  0.57484667  1
  O  O46  1  0.11526300  0.91032000  0.29830500  1
  O  O47  1  0.86755200  0.47940400  0.39807800  1
  O  O48  1  0.20554800  0.12576700  0.79281900  1
  O  O49  1  0.05647567  0.20378233  0.56822333  1
  O  O50  1  0.89477267  0.11528133  0.39555033  1
  O  O51  1  0.52059600  0.38814800  0.39807800  1
  O  O52  1  0.33828233  0.35657367  0.57484667  1
  O  O53  1  0.92021900  0.79445200  0.79281900  1
  O  O54  1  0.76996533  0.54848067  0.23135867  1
  O  O55  1  0.87423300  0.07978100  0.79281900  1
  O  O56  1  0.79621767  0.85269333  0.56822333  1
  O  O57  1  0.45151933  0.22148467  0.23135867  1
  O  O58  1  0.67944933  0.69188767  0.40230467  1
  O  O59  1  0.77851533  0.23003467  0.23135867  1
  O  O60  1  0.75634667  0.53827633  0.63163833  1
  O  O61  1  0.88717533  0.43856067  0.72888367  1
  O  O62  1  0.67910500  0.65388400  0.73563800  1
  O  O63  1  0.27851867  0.46578133  0.73141133  1
  O  O64  1  0.81397333  0.27685767  0.90155667  1
  O  O65  1  0.97477900  0.32089500  0.73563800  1
  O  O66  1  0.46172367  0.21807033  0.63163833  1
  O  O67  1  0.55138533  0.11282467  0.72888367  1
  O  O68  1  0.31009300  0.31504200  0.90818000  1
  O  O69  1  0.68495800  0.99505100  0.90818000  1
  O  O70  1  0.78192967  0.24365333  0.63163833  1
  O  O71  1  0.53421867  0.81273733  0.73141133  1
  O  O72  1  0.87221467  0.45910033  0.12615233  1
  O  O73  1  0.72314233  0.53711567  0.90155667  1
  O  O74  1  0.56143933  0.44861467  0.72888367  1
  O  O75  1  0.18726267  0.72148133  0.73141133  1
  O  O76  1  0.00494900  0.68990700  0.90818000  1
  O  O77  1  0.58688567  0.12778533  0.12615233  1
  O  O78  1  0.43663200  0.88181400  0.56469200  1
  O  O79  1  0.54089967  0.41311433  0.12615233  1
  O  O80  1  0.46288433  0.18602667  0.90155667  1
  O  O81  1  0.11818600  0.55481800  0.56469200  1
  O  O82  1  0.34611600  0.02522100  0.73563800  1
  O  O83  1  0.44518200  0.56336800  0.56469200  1
  O  O84  1  0.42301333  0.87160967  0.96497167  1
  O  O85  1  0.55384200  0.77189400  0.06221700  1
  O  O86  1  0.34577167  0.98721733  0.06897133  1
  O  O87  1  0.94518533  0.79911467  0.06474467  1
  O  O88  1  0.48064000  0.61019100  0.23489000  1
  O  O89  1  0.64144567  0.65422833  0.06897133  1
  O  O90  1  0.12839033  0.55140367  0.96497167  1
  O  O91  1  0.21805200  0.44615800  0.06221700  1
  O  O92  1  0.97675967  0.64837533  0.24151333  1
  O  O93  1  0.35162467  0.32838433  0.24151333  1
  O  O94  1  0.44859633  0.57698667  0.96497167  1
  O  O95  1  0.20088533  0.14607067  0.06474467  1
  O  O96  1  0.53888133  0.79243367  0.45948567  1
  O  O97  1  0.38980900  0.87044900  0.23489000  1
  O  O98  1  0.22810600  0.78194800  0.06221700  1
  O  O99  1  0.85392933  0.05481467  0.06474467  1
  O  O100  1  0.67161567  0.02324033  0.24151333  1
  O  O101  1  0.25355233  0.46111867  0.45948567  1
  O  O102  1  0.10329867  0.21514733  0.89802533  1
  O  O103  1  0.20756633  0.74644767  0.45948567  1
  O  O104  1  0.12955100  0.51936000  0.23489000  1
  O  O105  1  0.78485267  0.88815133  0.89802533  1
  O  O106  1  0.01278267  0.35855433  0.06897133  1
  O  O107  1  0.11184867  0.89670133  0.89802533  1
