# generated using pymatgen
data_DyHoO3
_symmetry_space_group_name_H-M   'P 1'
_cell_length_a   6.42343990
_cell_length_b   6.42343990
_cell_length_c   12.74775500
_cell_angle_alpha   90.00000000
_cell_angle_beta   90.00000000
_cell_angle_gamma   120.00000000
_symmetry_Int_Tables_number   1
_chemical_formula_structural   DyHoO3
_chemical_formula_sum   'Dy6 Ho6 O18'
_cell_volume   455.51184070
_cell_formula_units_Z   6
loop_
 _symmetry_equiv_pos_site_id
 _symmetry_equiv_pos_as_xyz
  1  'x, y, z'
loop_
 _atom_site_type_symbol
 _atom_site_label
 _atom_site_symmetry_multiplicity
 _atom_site_fract_x
 _atom_site_fract_y
 _atom_site_fract_z
 _atom_site_occupancy
  Dy  Dy0  1  0.66666667  0.33333333  0.73337800  1
  Dy  Dy1  1  0.00000000  0.00000000  0.76473800  1
  Dy  Dy2  1  0.00000000  0.00000000  0.26473800  1
  Dy  Dy3  1  0.66666667  0.33333333  0.23337800  1
  Dy  Dy4  1  0.33333333  0.66666667  0.23337800  1
  Dy  Dy5  1  0.33333333  0.66666667  0.73337800  1
  Ho  Ho6  1  0.66727250  0.66727250  0.99659300  1
  Ho  Ho7  1  0.33272750  0.33272750  0.49659300  1
  Ho  Ho8  1  0.33272750  0.00000000  0.99659300  1
  Ho  Ho9  1  0.66727250  0.00000000  0.49659300  1
  Ho  Ho10  1  0.00000000  0.66727250  0.49659300  1
  Ho  Ho11  1  0.00000000  0.33272750  0.99659300  1
  O  O12  1  0.69448950  0.69448950  0.17035600  1
  O  O13  1  0.63509150  0.63509150  0.82448400  1
  O  O14  1  0.36490850  0.36490850  0.32448400  1
  O  O15  1  0.30551050  0.30551050  0.67035600  1
  O  O16  1  0.66666667  0.33333333  0.52228400  1
  O  O17  1  0.00000000  0.00000000  0.96092700  1
  O  O18  1  0.66666667  0.33333333  0.02228400  1
  O  O19  1  0.00000000  0.00000000  0.46092700  1
  O  O20  1  0.30551050  0.00000000  0.17035600  1
  O  O21  1  0.36490850  0.00000000  0.82448400  1
  O  O22  1  0.00000000  0.69448950  0.67035600  1
  O  O23  1  0.63509150  0.00000000  0.32448400  1
  O  O24  1  0.69448950  0.00000000  0.67035600  1
  O  O25  1  0.00000000  0.63509150  0.32448400  1
  O  O26  1  0.33333333  0.66666667  0.02228400  1
  O  O27  1  0.33333333  0.66666667  0.52228400  1
  O  O28  1  0.00000000  0.36490850  0.82448400  1
  O  O29  1  0.00000000  0.30551050  0.17035600  1
