# generated using pymatgen
data_PrP2(HO)7
_symmetry_space_group_name_H-M   'P 1'
_cell_length_a   6.75427200
_cell_length_b   7.22104700
_cell_length_c   16.95588900
_cell_angle_alpha   90.00000000
_cell_angle_beta   90.00000000
_cell_angle_gamma   90.00000000
_symmetry_Int_Tables_number   1
_chemical_formula_structural   PrP2(HO)7
_chemical_formula_sum   'Pr4 P8 H28 O28'
_cell_volume   826.98814249
_cell_formula_units_Z   4
loop_
 _symmetry_equiv_pos_site_id
 _symmetry_equiv_pos_as_xyz
  1  'x, y, z'
loop_
 _atom_site_type_symbol
 _atom_site_label
 _atom_site_symmetry_multiplicity
 _atom_site_fract_x
 _atom_site_fract_y
 _atom_site_fract_z
 _atom_site_occupancy
  Pr  Pr0  1  0.14680000  0.33826800  0.27432300  1
  Pr  Pr1  1  0.35320000  0.66173200  0.77432300  1
  Pr  Pr2  1  0.64680000  0.16173200  0.72567700  1
  Pr  Pr3  1  0.85320000  0.83826800  0.22567700  1
  P  P4  1  0.15648900  0.10882900  0.07848200  1
  P  P5  1  0.34351100  0.89117100  0.57848200  1
  P  P6  1  0.65648900  0.39117100  0.92151800  1
  P  P7  1  0.84351100  0.60882900  0.42151800  1
  P  P8  1  0.68895600  0.33603100  0.21173800  1
  P  P9  1  0.81104400  0.66396900  0.71173800  1
  P  P10  1  0.18895600  0.16396900  0.78826200  1
  P  P11  1  0.31104400  0.83603100  0.28826200  1
  H  H12  1  0.33616300  0.06784900  0.03899000  1
  H  H13  1  0.16383700  0.93215100  0.53899000  1
  H  H14  1  0.83616300  0.43215100  0.96101000  1
  H  H15  1  0.66383700  0.56784900  0.46101000  1
  H  H16  1  0.02514900  0.15933000  0.01677000  1
  H  H17  1  0.47485100  0.84067000  0.51677000  1
  H  H18  1  0.52514900  0.34067000  0.98323000  1
  H  H19  1  0.97485100  0.65933000  0.48323000  1
  H  H20  1  0.63961500  0.30378800  0.13180500  1
  H  H21  1  0.86038500  0.69621200  0.63180500  1
  H  H22  1  0.13961500  0.19621200  0.86819500  1
  H  H23  1  0.36038500  0.80378800  0.36819500  1
  H  H24  1  0.26149300  0.34243200  0.46045700  1
  H  H25  1  0.23850700  0.65756800  0.96045700  1
  H  H26  1  0.76149300  0.15756800  0.53954300  1
  H  H27  1  0.73850700  0.84243200  0.03954300  1
  H  H28  1  0.44139600  0.25045100  0.41235400  1
  H  H29  1  0.05860400  0.74954900  0.91235400  1
  H  H30  1  0.94139600  0.24954900  0.58764600  1
  H  H31  1  0.55860400  0.75045100  0.08764600  1
  H  H32  1  0.22350400  0.48598400  0.58760000  1
  H  H33  1  0.27649600  0.51401600  0.08760000  1
  H  H34  1  0.72350400  0.01401600  0.41240000  1
  H  H35  1  0.77649600  0.98598400  0.91240000  1
  H  H36  1  0.26278600  0.27145200  0.58507900  1
  H  H37  1  0.23721400  0.72854800  0.08507900  1
  H  H38  1  0.76278600  0.22854800  0.41492100  1
  H  H39  1  0.73721400  0.77145200  0.91492100  1
  O  O40  1  0.18833700  0.27764500  0.13077100  1
  O  O41  1  0.31166300  0.72235500  0.63077100  1
  O  O42  1  0.68833700  0.22235500  0.86922900  1
  O  O43  1  0.81166300  0.77764500  0.36922900  1
  O  O44  1  0.08238100  0.92858100  0.11539600  1
  O  O45  1  0.41761900  0.07141900  0.61539600  1
  O  O46  1  0.58238100  0.57141900  0.88460400  1
  O  O47  1  0.91761900  0.42858100  0.38460400  1
  O  O48  1  0.83008200  0.50501200  0.21310200  1
  O  O49  1  0.66991800  0.49498800  0.71310200  1
  O  O50  1  0.33008200  0.99498800  0.78689800  1
  O  O51  1  0.16991800  0.00501200  0.28689800  1
  O  O52  1  0.81930800  0.17069500  0.23926400  1
  O  O53  1  0.68069200  0.82930500  0.73926400  1
  O  O54  1  0.31930800  0.32930500  0.76073600  1
  O  O55  1  0.18069200  0.67069500  0.26073600  1
  O  O56  1  0.49854000  0.35957000  0.25767600  1
  O  O57  1  0.00146000  0.64043000  0.75767600  1
  O  O58  1  0.99854000  0.14043000  0.74232400  1
  O  O59  1  0.50146000  0.85957000  0.24232400  1
  O  O60  1  0.31374500  0.31648000  0.40700100  1
  O  O61  1  0.18625500  0.68352000  0.90700100  1
  O  O62  1  0.81374500  0.18352000  0.59299900  1
  O  O63  1  0.68625500  0.81648000  0.09299900  1
  O  O64  1  0.17916600  0.37000700  0.56216600  1
  O  O65  1  0.32083400  0.62999300  0.06216600  1
  O  O66  1  0.67916600  0.12999300  0.43783400  1
  O  O67  1  0.82083400  0.87000700  0.93783400  1
