# generated using pymatgen
data_LiAlVO4
_symmetry_space_group_name_H-M   'P 1'
_cell_length_a   14.08429215
_cell_length_b   14.08429215
_cell_length_c   9.52957824
_cell_angle_alpha   90.00000000
_cell_angle_beta   90.00000000
_cell_angle_gamma   120.00000000
_symmetry_Int_Tables_number   1
_chemical_formula_structural   LiAlVO4
_chemical_formula_sum   'Li18 Al18 V18 O72'
_cell_volume   1637.09680864
_cell_formula_units_Z   18
loop_
 _symmetry_equiv_pos_site_id
 _symmetry_equiv_pos_as_xyz
  1  'x, y, z'
loop_
 _atom_site_type_symbol
 _atom_site_label
 _atom_site_symmetry_multiplicity
 _atom_site_fract_x
 _atom_site_fract_y
 _atom_site_fract_z
 _atom_site_occupancy
  Li  Li0  1  0.68519100  0.54325700  0.41587700  1
  Li  Li1  1  0.98248800  0.79348100  0.58042100  1
  Li  Li2  1  0.81099300  0.01751200  0.58042100  1
  Li  Li3  1  0.85806600  0.31480900  0.41587700  1
  Li  Li4  1  0.20651900  0.18900700  0.58042100  1
  Li  Li5  1  0.45674300  0.14193400  0.41587700  1
  Li  Li6  1  0.35185767  0.87659033  0.74921033  1
  Li  Li7  1  0.64915467  0.12681433  0.91375433  1
  Li  Li8  1  0.47765967  0.35084533  0.91375433  1
  Li  Li9  1  0.52473267  0.64814233  0.74921033  1
  Li  Li10  1  0.87318567  0.52234033  0.91375433  1
  Li  Li11  1  0.12340967  0.47526733  0.74921033  1
  Li  Li12  1  0.01852433  0.20992367  0.08254367  1
  Li  Li13  1  0.31582133  0.46014767  0.24708767  1
  Li  Li14  1  0.14432633  0.68417867  0.24708767  1
  Li  Li15  1  0.19139933  0.98147567  0.08254367  1
  Li  Li16  1  0.53985233  0.85567367  0.24708767  1
  Li  Li17  1  0.79007633  0.80860067  0.08254367  1
  Al  Al18  1  0.79065133  0.80575667  0.75128767  1
  Al  Al19  1  0.98485167  0.78649233  0.25192933  1
  Al  Al20  1  0.80164067  0.01514833  0.25192933  1
  Al  Al21  1  0.19424333  0.98489467  0.75128767  1
  Al  Al22  1  0.01510533  0.20934867  0.75128767  1
  Al  Al23  1  0.21350767  0.19835933  0.25192933  1
  Al  Al24  1  0.45731800  0.13909000  0.08462100  1
  Al  Al25  1  0.65151833  0.11982567  0.58526267  1
  Al  Al26  1  0.46830733  0.34848167  0.58526267  1
  Al  Al27  1  0.86091000  0.31822800  0.08462100  1
  Al  Al28  1  0.68177200  0.54268200  0.08462100  1
  Al  Al29  1  0.88017433  0.53169267  0.58526267  1
  Al  Al30  1  0.12398467  0.47242333  0.41795433  1
  Al  Al31  1  0.31818500  0.45315900  0.91859600  1
  Al  Al32  1  0.13497400  0.68181500  0.91859600  1
  Al  Al33  1  0.52757667  0.65156133  0.41795433  1
  Al  Al34  1  0.34843867  0.87601533  0.41795433  1
  Al  Al35  1  0.54684100  0.86502600  0.91859600  1
  V  V36  1  0.54457433  0.86052267  0.58344867  1
  V  V37  1  0.78722933  0.80478467  0.41555867  1
  V  V38  1  0.13947733  0.68405167  0.58344867  1
  V  V39  1  0.19521533  0.98244467  0.41555867  1
  V  V40  1  0.01755533  0.21277067  0.41555867  1
  V  V41  1  0.31594833  0.45542567  0.58344867  1
  V  V42  1  0.21124100  0.19385600  0.91678200  1
  V  V43  1  0.45389600  0.13811800  0.74889200  1
  V  V44  1  0.80614400  0.01738500  0.91678200  1
  V  V45  1  0.86188200  0.31577800  0.74889200  1
  V  V46  1  0.68422200  0.54610400  0.74889200  1
  V  V47  1  0.98261500  0.78875900  0.91678200  1
  V  V48  1  0.87790767  0.52718933  0.25011533  1
  V  V49  1  0.12056267  0.47145133  0.08222533  1
  V  V50  1  0.47281067  0.35071833  0.25011533  1
  V  V51  1  0.52854867  0.64911133  0.08222533  1
  V  V52  1  0.35088867  0.87943733  0.08222533  1
  V  V53  1  0.64928167  0.12209233  0.25011533  1
  O  O54  1  0.42200300  0.87446300  0.56698300  1
  O  O55  1  0.87464833  0.46738367  0.42181067  1
  O  O56  1  0.66247567  0.67157033  0.41999333  1
  O  O57  1  0.66280833  0.99929467  0.58641467  1
  O  O58  1  0.78507867  0.88112333  0.26199433  1
  O  O59  1  0.79242700  0.86706700  0.58750800  1
  O  O60  1  0.00070533  0.66351367  0.58641467  1
  O  O61  1  0.90998400  0.79219700  0.39821700  1
  O  O62  1  0.90935300  0.79100000  0.76101100  1
  O  O63  1  0.53261633  0.40726467  0.42181067  1
  O  O64  1  0.88164700  0.09064700  0.76101100  1
  O  O65  1  0.88221300  0.09001600  0.39821700  1
  O  O66  1  0.45246000  0.57799700  0.56698300  1
  O  O67  1  0.11887667  0.90395533  0.26199433  1
  O  O68  1  0.13293300  0.92536000  0.58750800  1
  O  O69  1  0.07464000  0.20757300  0.58750800  1
  O  O70  1  0.09604467  0.21492133  0.26199433  1
  O  O71  1  0.32842967  0.99090533  0.41999333  1
  O  O72  1  0.20780300  0.11778700  0.39821700  1
  O  O73  1  0.20900000  0.11835300  0.76101100  1
  O  O74  1  0.00909467  0.33752433  0.41999333  1
  O  O75  1  0.12553700  0.54754000  0.56698300  1
  O  O76  1  0.33648633  0.33719167  0.58641467  1
  O  O77  1  0.59273533  0.12535167  0.42181067  1
  O  O78  1  0.08866967  0.20779633  0.90031633  1
  O  O79  1  0.54131500  0.80071700  0.75514400  1
  O  O80  1  0.32914233  0.00490367  0.75332667  1
  O  O81  1  0.32947500  0.33262800  0.91974800  1
  O  O82  1  0.45174533  0.21445667  0.59532767  1
  O  O83  1  0.45909367  0.20040033  0.92084133  1
  O  O84  1  0.66737200  0.99684700  0.91974800  1
  O  O85  1  0.57665067  0.12553033  0.73155033  1
  O  O86  1  0.57601967  0.12433333  0.09434433  1
  O  O87  1  0.19928300  0.74059800  0.75514400  1
  O  O88  1  0.54831367  0.42398033  0.09434433  1
  O  O89  1  0.54887967  0.42334933  0.73155033  1
  O  O90  1  0.11912667  0.91133033  0.90031633  1
  O  O91  1  0.78554333  0.23728867  0.59532767  1
  O  O92  1  0.79959967  0.25869333  0.92084133  1
  O  O93  1  0.74130667  0.54090633  0.92084133  1
  O  O94  1  0.76271133  0.54825467  0.59532767  1
  O  O95  1  0.99509633  0.32423867  0.75332667  1
  O  O96  1  0.87446967  0.45112033  0.73155033  1
  O  O97  1  0.87566667  0.45168633  0.09434433  1
  O  O98  1  0.67576133  0.67085767  0.75332667  1
  O  O99  1  0.79220367  0.88087333  0.90031633  1
  O  O100  1  0.00315300  0.67052500  0.91974800  1
  O  O101  1  0.25940200  0.45868500  0.75514400  1
  O  O102  1  0.75533633  0.54112967  0.23364967  1
  O  O103  1  0.20798167  0.13405033  0.08847733  1
  O  O104  1  0.99580900  0.33823700  0.08666000  1
  O  O105  1  0.99614167  0.66596133  0.25308133  1
  O  O106  1  0.11841200  0.54779000  0.92866100  1
  O  O107  1  0.12576033  0.53373367  0.25417467  1
  O  O108  1  0.33403867  0.33018033  0.25308133  1
  O  O109  1  0.24331733  0.45886367  0.06488367  1
  O  O110  1  0.24268633  0.45766667  0.42767767  1
  O  O111  1  0.86594967  0.07393133  0.08847733  1
  O  O112  1  0.21498033  0.75731367  0.42767767  1
  O  O113  1  0.21554633  0.75668267  0.06488367  1
  O  O114  1  0.78579333  0.24466367  0.23364967  1
  O  O115  1  0.45221000  0.57062200  0.92866100  1
  O  O116  1  0.46626633  0.59202667  0.25417467  1
  O  O117  1  0.40797333  0.87423967  0.25417467  1
  O  O118  1  0.42937800  0.88158800  0.92866100  1
  O  O119  1  0.66176300  0.65757200  0.08666000  1
  O  O120  1  0.54113633  0.78445367  0.06488367  1
  O  O121  1  0.54233333  0.78501967  0.42767767  1
  O  O122  1  0.34242800  0.00419100  0.08666000  1
  O  O123  1  0.45887033  0.21420667  0.23364967  1
  O  O124  1  0.66981967  0.00385833  0.25308133  1
  O  O125  1  0.92606867  0.79201833  0.08847733  1
