# generated using pymatgen
data_Ba5(Ga3O7)2
_symmetry_space_group_name_H-M   'P 1'
_cell_length_a   11.90835200
_cell_length_b   12.26567600
_cell_length_c   11.53987600
_cell_angle_alpha   90.00000000
_cell_angle_beta   90.00000000
_cell_angle_gamma   90.00000000
_symmetry_Int_Tables_number   1
_chemical_formula_structural   Ba5(Ga3O7)2
_chemical_formula_sum   'Ba20 Ga24 O56'
_cell_volume   1685.56030181
_cell_formula_units_Z   4
loop_
 _symmetry_equiv_pos_site_id
 _symmetry_equiv_pos_as_xyz
  1  'x, y, z'
loop_
 _atom_site_type_symbol
 _atom_site_label
 _atom_site_symmetry_multiplicity
 _atom_site_fract_x
 _atom_site_fract_y
 _atom_site_fract_z
 _atom_site_occupancy
  Ba  Ba0  1  0.62991650  0.34623750  0.93508000  1
  Ba  Ba1  1  0.37008350  0.34623750  0.43508000  1
  Ba  Ba2  1  0.83114350  0.14381550  0.86816700  1
  Ba  Ba3  1  0.16885650  0.14381550  0.36816700  1
  Ba  Ba4  1  0.48758500  0.00000000  0.40971800  1
  Ba  Ba5  1  0.51241500  0.00000000  0.90971800  1
  Ba  Ba6  1  0.16885650  0.85618450  0.36816700  1
  Ba  Ba7  1  0.83114350  0.85618450  0.86816700  1
  Ba  Ba8  1  0.62991650  0.65376250  0.93508000  1
  Ba  Ba9  1  0.37008350  0.65376250  0.43508000  1
  Ba  Ba10  1  0.12991650  0.84623750  0.93508000  1
  Ba  Ba11  1  0.87008350  0.84623750  0.43508000  1
  Ba  Ba12  1  0.33114350  0.64381550  0.86816700  1
  Ba  Ba13  1  0.66885650  0.64381550  0.36816700  1
  Ba  Ba14  1  0.98758500  0.50000000  0.40971800  1
  Ba  Ba15  1  0.01241500  0.50000000  0.90971800  1
  Ba  Ba16  1  0.66885650  0.35618450  0.36816700  1
  Ba  Ba17  1  0.33114350  0.35618450  0.86816700  1
  Ba  Ba18  1  0.12991650  0.15376250  0.93508000  1
  Ba  Ba19  1  0.87008350  0.15376250  0.43508000  1
  Ga  Ga20  1  0.59854200  0.24296200  0.65075100  1
  Ga  Ga21  1  0.40145800  0.24296200  0.15075100  1
  Ga  Ga22  1  0.64903450  0.13738750  0.17144400  1
  Ga  Ga23  1  0.35096550  0.13738750  0.67144400  1
  Ga  Ga24  1  0.69943900  0.00000000  0.62678400  1
  Ga  Ga25  1  0.30056100  0.00000000  0.12678400  1
  Ga  Ga26  1  0.00590400  0.00000000  0.64933300  1
  Ga  Ga27  1  0.99409600  0.00000000  0.14933300  1
  Ga  Ga28  1  0.64903450  0.86261250  0.17144400  1
  Ga  Ga29  1  0.35096550  0.86261250  0.67144400  1
  Ga  Ga30  1  0.59854200  0.75703800  0.65075100  1
  Ga  Ga31  1  0.40145800  0.75703800  0.15075100  1
  Ga  Ga32  1  0.09854200  0.74296200  0.65075100  1
  Ga  Ga33  1  0.90145800  0.74296200  0.15075100  1
  Ga  Ga34  1  0.14903450  0.63738750  0.17144400  1
  Ga  Ga35  1  0.85096550  0.63738750  0.67144400  1
  Ga  Ga36  1  0.19943900  0.50000000  0.62678400  1
  Ga  Ga37  1  0.80056100  0.50000000  0.12678400  1
  Ga  Ga38  1  0.50590400  0.50000000  0.64933300  1
  Ga  Ga39  1  0.49409600  0.50000000  0.14933300  1
  Ga  Ga40  1  0.14903450  0.36261250  0.17144400  1
  Ga  Ga41  1  0.85096550  0.36261250  0.67144400  1
  Ga  Ga42  1  0.09854200  0.25703800  0.65075100  1
  Ga  Ga43  1  0.90145800  0.25703800  0.15075100  1
  O  O44  1  0.55854550  0.37313450  0.57047400  1
  O  O45  1  0.44145450  0.37313450  0.07047400  1
  O  O46  1  0.52326150  0.20996850  0.24848300  1
  O  O47  1  0.47673850  0.20996850  0.74848300  1
  O  O48  1  0.77402250  0.21466850  0.23752400  1
  O  O49  1  0.22597750  0.21466850  0.73752400  1
  O  O50  1  0.64700300  0.15197000  0.01385800  1
  O  O51  1  0.35299700  0.15197000  0.51385800  1
  O  O52  1  0.64436200  0.12811400  0.55023600  1
  O  O53  1  0.35563800  0.12811400  0.05023600  1
  O  O54  1  0.00050700  0.00000000  0.80864700  1
  O  O55  1  0.14525000  0.00000000  0.08955200  1
  O  O56  1  0.64866900  0.00000000  0.24024600  1
  O  O57  1  0.99949300  0.00000000  0.30864700  1
  O  O58  1  0.35133100  0.00000000  0.74024600  1
  O  O59  1  0.69419100  0.00000000  0.78337000  1
  O  O60  1  0.30580900  0.00000000  0.28337000  1
  O  O61  1  0.85475000  0.00000000  0.58955200  1
  O  O62  1  0.64436200  0.87188600  0.55023600  1
  O  O63  1  0.35563800  0.87188600  0.05023600  1
  O  O64  1  0.35299700  0.84803000  0.51385800  1
  O  O65  1  0.64700300  0.84803000  0.01385800  1
  O  O66  1  0.22597750  0.78533150  0.73752400  1
  O  O67  1  0.77402250  0.78533150  0.23752400  1
  O  O68  1  0.47673850  0.79003150  0.74848300  1
  O  O69  1  0.52326150  0.79003150  0.24848300  1
  O  O70  1  0.55854550  0.62686550  0.57047400  1
  O  O71  1  0.44145450  0.62686550  0.07047400  1
  O  O72  1  0.05854550  0.87313450  0.57047400  1
  O  O73  1  0.94145450  0.87313450  0.07047400  1
  O  O74  1  0.02326150  0.70996850  0.24848300  1
  O  O75  1  0.97673850  0.70996850  0.74848300  1
  O  O76  1  0.27402250  0.71466850  0.23752400  1
  O  O77  1  0.72597750  0.71466850  0.73752400  1
  O  O78  1  0.14700300  0.65197000  0.01385800  1
  O  O79  1  0.85299700  0.65197000  0.51385800  1
  O  O80  1  0.14436200  0.62811400  0.55023600  1
  O  O81  1  0.85563800  0.62811400  0.05023600  1
  O  O82  1  0.50050700  0.50000000  0.80864700  1
  O  O83  1  0.64525000  0.50000000  0.08955200  1
  O  O84  1  0.14866900  0.50000000  0.24024600  1
  O  O85  1  0.49949300  0.50000000  0.30864700  1
  O  O86  1  0.85133100  0.50000000  0.74024600  1
  O  O87  1  0.19419100  0.50000000  0.78337000  1
  O  O88  1  0.80580900  0.50000000  0.28337000  1
  O  O89  1  0.35475000  0.50000000  0.58955200  1
  O  O90  1  0.14436200  0.37188600  0.55023600  1
  O  O91  1  0.85563800  0.37188600  0.05023600  1
  O  O92  1  0.85299700  0.34803000  0.51385800  1
  O  O93  1  0.14700300  0.34803000  0.01385800  1
  O  O94  1  0.72597750  0.28533150  0.73752400  1
  O  O95  1  0.27402250  0.28533150  0.23752400  1
  O  O96  1  0.97673850  0.29003150  0.74848300  1
  O  O97  1  0.02326150  0.29003150  0.24848300  1
  O  O98  1  0.05854550  0.12686550  0.57047400  1
  O  O99  1  0.94145450  0.12686550  0.07047400  1
