# generated using pymatgen
data_Li3V2(OF)3
_symmetry_space_group_name_H-M   'P 1'
_cell_length_a   3.25192083
_cell_length_b   3.25192083
_cell_length_c   40.04728692
_cell_angle_alpha   90.00000000
_cell_angle_beta   90.00000000
_cell_angle_gamma   120.00000000
_symmetry_Int_Tables_number   1
_chemical_formula_structural   Li3V2(OF)3
_chemical_formula_sum   'Li9 V6 O9 F9'
_cell_volume   366.76143147
_cell_formula_units_Z   3
loop_
 _symmetry_equiv_pos_site_id
 _symmetry_equiv_pos_as_xyz
  1  'x, y, z'
loop_
 _atom_site_type_symbol
 _atom_site_label
 _atom_site_symmetry_multiplicity
 _atom_site_fract_x
 _atom_site_fract_y
 _atom_site_fract_z
 _atom_site_occupancy
  Li  Li0  1  0.66666667  0.33333333  0.19330183  1
  Li  Li1  1  0.66666667  0.33333333  0.07314767  1
  Li  Li2  1  0.00000000  0.00000000  0.13316233  1
  Li  Li3  1  0.33333333  0.66666667  0.52663517  1
  Li  Li4  1  0.33333333  0.66666667  0.40648100  1
  Li  Li5  1  0.66666667  0.33333333  0.46649567  1
  Li  Li6  1  0.00000000  0.00000000  0.85996850  1
  Li  Li7  1  0.00000000  0.00000000  0.73981433  1
  Li  Li8  1  0.33333333  0.66666667  0.79982900  1
  V  V9  1  0.00000000  0.00000000  0.00275300  1
  V  V10  1  0.00000000  0.00000000  0.25994383  1
  V  V11  1  0.66666667  0.33333333  0.33608633  1
  V  V12  1  0.66666667  0.33333333  0.59327717  1
  V  V13  1  0.33333333  0.66666667  0.66941967  1
  V  V14  1  0.33333333  0.66666667  0.92661050  1
  O  O15  1  0.66666667  0.33333333  0.25073400  1
  O  O16  1  0.66666667  0.33333333  0.02333517  1
  O  O17  1  0.00000000  0.00000000  0.30786967  1
  O  O18  1  0.33333333  0.66666667  0.58406733  1
  O  O19  1  0.33333333  0.66666667  0.35666850  1
  O  O20  1  0.66666667  0.33333333  0.64120300  1
  O  O21  1  0.00000000  0.00000000  0.91740067  1
  O  O22  1  0.00000000  0.00000000  0.69000183  1
  O  O23  1  0.33333333  0.66666667  0.97453633  1
  F  F24  1  0.66666667  0.33333333  0.14553983  1
  F  F25  1  0.00000000  0.00000000  0.20400983  1
  F  F26  1  0.00000000  0.00000000  0.08561183  1
  F  F27  1  0.33333333  0.66666667  0.47887317  1
  F  F28  1  0.66666667  0.33333333  0.53734317  1
  F  F29  1  0.66666667  0.33333333  0.41894517  1
  F  F30  1  0.00000000  0.00000000  0.81220650  1
  F  F31  1  0.33333333  0.66666667  0.87067650  1
  F  F32  1  0.33333333  0.66666667  0.75227850  1
