# generated using pymatgen
data_KV13O20
_symmetry_space_group_name_H-M   'P 1'
_cell_length_a   7.64135800
_cell_length_b   8.58508535
_cell_length_c   12.90738216
_cell_angle_alpha   87.38773724
_cell_angle_beta   75.14507178
_cell_angle_gamma   87.55910647
_symmetry_Int_Tables_number   1
_chemical_formula_structural   KV13O20
_chemical_formula_sum   'K2 V26 O40'
_cell_volume   817.17706814
_cell_formula_units_Z   2
loop_
 _symmetry_equiv_pos_site_id
 _symmetry_equiv_pos_as_xyz
  1  'x, y, z'
loop_
 _atom_site_type_symbol
 _atom_site_label
 _atom_site_symmetry_multiplicity
 _atom_site_fract_x
 _atom_site_fract_y
 _atom_site_fract_z
 _atom_site_occupancy
  K  K0  1  0.00068900  0.80030600  0.19085200  1
  K  K1  1  0.99931100  0.19969400  0.80914800  1
  V  V2  1  0.79884500  0.86121400  0.97240300  1
  V  V3  1  0.81062900  0.82986100  0.66931800  1
  V  V4  1  0.82265900  0.60316600  0.85509500  1
  V  V5  1  0.46078600  0.91522300  0.89689900  1
  V  V6  1  0.54615500  0.68959600  0.50486700  1
  V  V7  1  0.54252900  0.87812700  0.29692400  1
  V  V8  1  0.53876000  0.49109900  0.70630800  1
  V  V9  1  0.54550700  0.28267100  0.90055000  1
  V  V10  1  0.80385100  0.26054600  0.57439800  1
  V  V11  1  0.80631100  0.46810100  0.36591500  1
  V  V12  1  0.17921900  0.79759900  0.74814500  1
  V  V13  1  0.18341600  0.99580300  0.54493000  1
  V  V14  1  0.18855100  0.57170000  0.93431600  1
  V  V15  1  0.81658400  0.00419700  0.45507000  1
  V  V16  1  0.82078100  0.20240100  0.25185500  1
  V  V17  1  0.81144900  0.42830000  0.06568400  1
  V  V18  1  0.19614900  0.73945400  0.42560200  1
  V  V19  1  0.19368900  0.53189900  0.63408500  1
  V  V20  1  0.45449300  0.71732900  0.09945000  1
  V  V21  1  0.45384500  0.31040400  0.49513300  1
  V  V22  1  0.46124000  0.50890100  0.29369200  1
  V  V23  1  0.45747100  0.12187300  0.70307600  1
  V  V24  1  0.53921400  0.08477700  0.10310100  1
  V  V25  1  0.18937100  0.17013900  0.33068200  1
  V  V26  1  0.17734100  0.39683400  0.14490500  1
  V  V27  1  0.20115500  0.13878600  0.02759700  1
  O  O28  1  0.91556600  0.83987000  0.80980900  1
  O  O29  1  0.60540600  0.73479100  0.94451300  1
  O  O30  1  0.58913900  0.94168200  0.74608100  1
  O  O31  1  0.74649800  0.39933000  0.92532400  1
  O  O32  1  0.73670000  0.80575800  0.53159800  1
  O  O33  1  0.73919800  0.61173500  0.72313400  1
  O  O34  1  0.25927200  0.79082200  0.87681300  1
  O  O35  1  0.25579300  0.00617000  0.67804800  1
  O  O36  1  0.39258100  0.86308800  0.45548200  1
  O  O37  1  0.41147900  0.46232500  0.85659800  1
  O  O38  1  0.39011200  0.66438600  0.65496900  1
  O  O39  1  0.65936500  0.27439700  0.72433800  1
  O  O40  1  0.65973900  0.86581100  0.12674700  1
  O  O41  1  0.65547000  0.65735000  0.34654700  1
  O  O42  1  0.65992000  0.05763100  0.94241000  1
  O  O43  1  0.67257500  0.45936400  0.52970000  1
  O  O44  1  0.91352500  0.44664200  0.21384600  1
  O  O45  1  0.92210500  0.64764700  0.98936000  1
  O  O46  1  0.91945600  0.05482700  0.59640400  1
  O  O47  1  0.91961400  0.25005000  0.40459500  1
  O  O48  1  0.08647500  0.55335800  0.78615400  1
  O  O49  1  0.08054400  0.94517300  0.40359600  1
  O  O50  1  0.08038600  0.74995000  0.59540500  1
  O  O51  1  0.07789500  0.35235300  0.01064000  1
  O  O52  1  0.34008000  0.94236900  0.05759000  1
  O  O53  1  0.32742500  0.54063600  0.47030000  1
  O  O54  1  0.34063500  0.72560300  0.27566200  1
  O  O55  1  0.34026100  0.13418900  0.87325300  1
  O  O56  1  0.34453000  0.34265000  0.65345300  1
  O  O57  1  0.58852100  0.53767500  0.14340200  1
  O  O58  1  0.60988800  0.33561400  0.34503100  1
  O  O59  1  0.60741900  0.13691200  0.54451800  1
  O  O60  1  0.74420700  0.99383000  0.32195200  1
  O  O61  1  0.74072800  0.20917800  0.12318700  1
  O  O62  1  0.25350200  0.60067000  0.07467600  1
  O  O63  1  0.26080200  0.38826500  0.27686600  1
  O  O64  1  0.26330000  0.19424200  0.46840200  1
  O  O65  1  0.39459400  0.26520900  0.05548700  1
  O  O66  1  0.41086100  0.05831800  0.25391900  1
  O  O67  1  0.08443400  0.16013000  0.19019100  1
