# generated using pymatgen
data_Na2BiO3
_symmetry_space_group_name_H-M   'P 1'
_cell_length_a   6.06315400
_cell_length_b   10.07490200
_cell_length_c   5.88099153
_cell_angle_alpha   90.00000000
_cell_angle_beta   111.45566554
_cell_angle_gamma   90.00000000
_symmetry_Int_Tables_number   1
_chemical_formula_structural   Na2BiO3
_chemical_formula_sum   'Na8 Bi4 O12'
_cell_volume   334.34906160
_cell_formula_units_Z   4
loop_
 _symmetry_equiv_pos_site_id
 _symmetry_equiv_pos_as_xyz
  1  'x, y, z'
loop_
 _atom_site_type_symbol
 _atom_site_label
 _atom_site_symmetry_multiplicity
 _atom_site_fract_x
 _atom_site_fract_y
 _atom_site_fract_z
 _atom_site_occupancy
  Na  Na0  1  0.50000000  0.58213200  0.25000000  1
  Na  Na1  1  0.50000000  0.25547100  0.25000000  1
  Na  Na2  1  0.50000000  0.74452900  0.75000000  1
  Na  Na3  1  0.50000000  0.41786800  0.75000000  1
  Na  Na4  1  0.00000000  0.08213200  0.25000000  1
  Na  Na5  1  0.00000000  0.75547100  0.25000000  1
  Na  Na6  1  0.00000000  0.24452900  0.75000000  1
  Na  Na7  1  0.00000000  0.91786800  0.75000000  1
  Bi  Bi8  1  0.50000000  0.90906800  0.25000000  1
  Bi  Bi9  1  0.50000000  0.09093200  0.75000000  1
  Bi  Bi10  1  0.00000000  0.40906800  0.25000000  1
  Bi  Bi11  1  0.00000000  0.59093200  0.75000000  1
  O  O12  1  0.71297050  0.06819750  0.50153700  1
  O  O13  1  0.71297050  0.93180250  0.00153700  1
  O  O14  1  0.75000000  0.75000000  0.50000000  1
  O  O15  1  0.28702950  0.93180250  0.49846300  1
  O  O16  1  0.75000000  0.25000000  0.00000000  1
  O  O17  1  0.28702950  0.06819750  0.99846300  1
  O  O18  1  0.21297050  0.56819750  0.50153700  1
  O  O19  1  0.21297050  0.43180250  0.00153700  1
  O  O20  1  0.25000000  0.25000000  0.50000000  1
  O  O21  1  0.78702950  0.43180250  0.49846300  1
  O  O22  1  0.25000000  0.75000000  0.00000000  1
  O  O23  1  0.78702950  0.56819750  0.99846300  1
