# generated using pymatgen
data_Tm(ClO4)3
_symmetry_space_group_name_H-M   'P 1'
_cell_length_a   8.20335832
_cell_length_b   8.20335832
_cell_length_c   24.33188219
_cell_angle_alpha   90.00000000
_cell_angle_beta   90.00000000
_cell_angle_gamma   120.00000000
_symmetry_Int_Tables_number   1
_chemical_formula_structural   Tm(ClO4)3
_chemical_formula_sum   'Tm6 Cl18 O72'
_cell_volume   1418.04397991
_cell_formula_units_Z   6
loop_
 _symmetry_equiv_pos_site_id
 _symmetry_equiv_pos_as_xyz
  1  'x, y, z'
loop_
 _atom_site_type_symbol
 _atom_site_label
 _atom_site_symmetry_multiplicity
 _atom_site_fract_x
 _atom_site_fract_y
 _atom_site_fract_z
 _atom_site_occupancy
  Tm  Tm0  1  0.00000000  0.00000000  0.05879500  1
  Tm  Tm1  1  0.33333333  0.66666667  0.22546167  1
  Tm  Tm2  1  0.66666667  0.33333333  0.39212833  1
  Tm  Tm3  1  0.00000000  0.00000000  0.55879500  1
  Tm  Tm4  1  0.33333333  0.66666667  0.72546167  1
  Tm  Tm5  1  0.66666667  0.33333333  0.89212833  1
  Cl  Cl6  1  0.02305967  0.70126433  0.16690933  1
  Cl  Cl7  1  0.67820467  0.97694033  0.16690933  1
  Cl  Cl8  1  0.68972633  0.65512867  0.00024267  1
  Cl  Cl9  1  0.29873567  0.32179533  0.16690933  1
  Cl  Cl10  1  0.34487133  0.03459767  0.00024267  1
  Cl  Cl11  1  0.96540233  0.31027367  0.00024267  1
  Cl  Cl12  1  0.68972633  0.03459767  0.50024267  1
  Cl  Cl13  1  0.34487133  0.31027367  0.50024267  1
  Cl  Cl14  1  0.35639300  0.98846200  0.33357600  1
  Cl  Cl15  1  0.96540233  0.65512867  0.50024267  1
  Cl  Cl16  1  0.01153800  0.36793100  0.33357600  1
  Cl  Cl17  1  0.63206900  0.64360700  0.33357600  1
  Cl  Cl18  1  0.35639300  0.36793100  0.83357600  1
  Cl  Cl19  1  0.01153800  0.64360700  0.83357600  1
  Cl  Cl20  1  0.02305967  0.32179533  0.66690933  1
  Cl  Cl21  1  0.63206900  0.98846200  0.83357600  1
  Cl  Cl22  1  0.67820467  0.70126433  0.66690933  1
  Cl  Cl23  1  0.29873567  0.97694033  0.66690933  1
  O  O24  1  0.80980067  0.24450933  0.32002933  1
  O  O25  1  0.43470867  0.19019933  0.32002933  1
  O  O26  1  0.07867767  0.84256633  0.12280533  1
  O  O27  1  0.77472600  0.17566900  0.17403000  1
  O  O28  1  0.12416767  0.80006733  0.21746533  1
  O  O29  1  0.44139267  0.93239033  0.00736333  1
  O  O30  1  0.41201100  0.90277800  0.28947200  1
  O  O31  1  0.75549067  0.56529133  0.32002933  1
  O  O32  1  0.82433100  0.59905700  0.17403000  1
  O  O33  1  0.47646733  0.89862467  0.15336267  1
  O  O34  1  0.76388867  0.92132233  0.12280533  1
  O  O35  1  0.67589967  0.87583233  0.21746533  1
  O  O36  1  0.10137533  0.57784267  0.15336267  1
  O  O37  1  0.06760967  0.50900233  0.00736333  1
  O  O38  1  0.09722200  0.50923300  0.28947200  1
  O  O39  1  0.49076700  0.58798900  0.28947200  1
  O  O40  1  0.49099767  0.55860733  0.00736333  1
  O  O41  1  0.42215733  0.52353267  0.15336267  1
  O  O42  1  0.79083433  0.65743367  0.05079867  1
  O  O43  1  0.19993267  0.32410033  0.21746533  1
  O  O44  1  0.15743367  0.23611133  0.12280533  1
  O  O45  1  0.40094300  0.22527400  0.17403000  1
  O  O46  1  0.34256633  0.13340067  0.05079867  1
  O  O47  1  0.86659933  0.20916567  0.05079867  1
  O  O48  1  0.47646733  0.57784267  0.65336267  1
  O  O49  1  0.10137533  0.52353267  0.65336267  1
  O  O50  1  0.74534433  0.17589967  0.45613867  1
  O  O51  1  0.44139267  0.50900233  0.50736333  1
  O  O52  1  0.79083433  0.13340067  0.55079867  1
  O  O53  1  0.10805933  0.26572367  0.34069667  1
  O  O54  1  0.07867767  0.23611133  0.62280533  1
  O  O55  1  0.42215733  0.89862467  0.65336267  1
  O  O56  1  0.49099767  0.93239033  0.50736333  1
  O  O57  1  0.14313400  0.23195800  0.48669600  1
  O  O58  1  0.43055533  0.25465567  0.45613867  1
  O  O59  1  0.34256633  0.20916567  0.55079867  1
  O  O60  1  0.76804200  0.91117600  0.48669600  1
  O  O61  1  0.73427633  0.84233567  0.34069667  1
  O  O62  1  0.76388867  0.84256633  0.62280533  1
  O  O63  1  0.15743367  0.92132233  0.62280533  1
  O  O64  1  0.15766433  0.89194067  0.34069667  1
  O  O65  1  0.08882400  0.85686600  0.48669600  1
  O  O66  1  0.45750100  0.99076700  0.38413200  1
  O  O67  1  0.86659933  0.65743367  0.55079867  1
  O  O68  1  0.82410033  0.56944467  0.45613867  1
  O  O69  1  0.06760967  0.55860733  0.50736333  1
  O  O70  1  0.00923300  0.46673400  0.38413200  1
  O  O71  1  0.53326600  0.54249900  0.38413200  1
  O  O72  1  0.14313400  0.91117600  0.98669600  1
  O  O73  1  0.76804200  0.85686600  0.98669600  1
  O  O74  1  0.41201100  0.50923300  0.78947200  1
  O  O75  1  0.10805933  0.84233567  0.84069667  1
  O  O76  1  0.45750100  0.46673400  0.88413200  1
  O  O77  1  0.77472600  0.59905700  0.67403000  1
  O  O78  1  0.74534433  0.56944467  0.95613867  1
  O  O79  1  0.08882400  0.23195800  0.98669600  1
  O  O80  1  0.15766433  0.26572367  0.84069667  1
  O  O81  1  0.80980067  0.56529133  0.82002933  1
  O  O82  1  0.09722200  0.58798900  0.78947200  1
  O  O83  1  0.00923300  0.54249900  0.88413200  1
  O  O84  1  0.43470867  0.24450933  0.82002933  1
  O  O85  1  0.40094300  0.17566900  0.67403000  1
  O  O86  1  0.43055533  0.17589967  0.95613867  1
  O  O87  1  0.82410033  0.25465567  0.95613867  1
  O  O88  1  0.82433100  0.22527400  0.67403000  1
  O  O89  1  0.75549067  0.19019933  0.82002933  1
  O  O90  1  0.12416767  0.32410033  0.71746533  1
  O  O91  1  0.53326600  0.99076700  0.88413200  1
  O  O92  1  0.49076700  0.90277800  0.78947200  1
  O  O93  1  0.73427633  0.89194067  0.84069667  1
  O  O94  1  0.67589967  0.80006733  0.71746533  1
  O  O95  1  0.19993267  0.87583233  0.71746533  1
