# generated using pymatgen
data_Mn9(FeO6)4
_symmetry_space_group_name_H-M   'P 1'
_cell_length_a   25.61454000
_cell_length_b   5.91050600
_cell_length_c   5.89657598
_cell_angle_alpha   90.00000000
_cell_angle_beta   103.05302897
_cell_angle_gamma   90.00000000
_symmetry_Int_Tables_number   1
_chemical_formula_structural   Mn9(FeO6)4
_chemical_formula_sum   'Mn18 Fe8 O48'
_cell_volume   869.64511439
_cell_formula_units_Z   2
loop_
 _symmetry_equiv_pos_site_id
 _symmetry_equiv_pos_as_xyz
  1  'x, y, z'
loop_
 _atom_site_type_symbol
 _atom_site_label
 _atom_site_symmetry_multiplicity
 _atom_site_fract_x
 _atom_site_fract_y
 _atom_site_fract_z
 _atom_site_occupancy
  Mn  Mn0  1  0.33436900  0.00000000  0.33534300  1
  Mn  Mn1  1  0.33443200  0.00000000  0.83354600  1
  Mn  Mn2  1  0.41582600  0.25259900  0.16571000  1
  Mn  Mn3  1  0.41582600  0.74740100  0.16571000  1
  Mn  Mn4  1  0.49914600  0.50000000  0.00117900  1
  Mn  Mn5  1  0.49900200  0.50000000  0.49940900  1
  Mn  Mn6  1  0.08113800  0.75032000  0.83041600  1
  Mn  Mn7  1  0.08113800  0.24968000  0.83041600  1
  Mn  Mn8  1  0.16553500  0.50000000  0.65467100  1
  Mn  Mn9  1  0.83436900  0.50000000  0.33534300  1
  Mn  Mn10  1  0.83443200  0.50000000  0.83354600  1
  Mn  Mn11  1  0.91582600  0.75259900  0.16571000  1
  Mn  Mn12  1  0.91582600  0.24740100  0.16571000  1
  Mn  Mn13  1  0.99914600  0.00000000  0.00117900  1
  Mn  Mn14  1  0.99900200  0.00000000  0.49940900  1
  Mn  Mn15  1  0.58113800  0.25032000  0.83041600  1
  Mn  Mn16  1  0.58113800  0.74968000  0.83041600  1
  Mn  Mn17  1  0.66553500  0.00000000  0.65467100  1
  Fe  Fe18  1  0.24962850  0.26237650  0.49930100  1
  Fe  Fe19  1  0.24962850  0.73762350  0.49930100  1
  Fe  Fe20  1  0.16561500  0.50000000  0.17654400  1
  Fe  Fe21  1  0.20804100  0.00000000  0.95492100  1
  Fe  Fe22  1  0.74962850  0.76237650  0.49930100  1
  Fe  Fe23  1  0.74962850  0.23762350  0.49930100  1
  Fe  Fe24  1  0.66561500  0.00000000  0.17654400  1
  Fe  Fe25  1  0.70804100  0.50000000  0.95492100  1
  O  O26  1  0.25355700  0.00000000  0.26132400  1
  O  O27  1  0.25438200  0.00000000  0.74561600  1
  O  O28  1  0.32922950  0.21202050  0.58114800  1
  O  O29  1  0.32922950  0.78797950  0.58114800  1
  O  O30  1  0.33876600  0.22023100  0.08954600  1
  O  O31  1  0.33876600  0.77976900  0.08954600  1
  O  O32  1  0.41099200  0.00000000  0.37814700  1
  O  O33  1  0.41105500  0.00000000  0.94371500  1
  O  O34  1  0.42154600  0.50000000  0.95456700  1
  O  O35  1  0.42126500  0.50000000  0.38789400  1
  O  O36  1  0.49370750  0.71648150  0.24497000  1
  O  O37  1  0.49370750  0.28351850  0.24497000  1
  O  O38  1  0.00443000  0.78313500  0.75453500  1
  O  O39  1  0.00443000  0.21686500  0.75453500  1
  O  O40  1  0.07659300  0.00000000  0.04395100  1
  O  O41  1  0.07628400  0.00000000  0.61010700  1
  O  O42  1  0.08782700  0.50000000  0.62473600  1
  O  O43  1  0.08572200  0.50000000  0.04277600  1
  O  O44  1  0.16153250  0.26290250  0.90402800  1
  O  O45  1  0.16153250  0.73709750  0.90402800  1
  O  O46  1  0.16765350  0.72433750  0.43355400  1
  O  O47  1  0.16765350  0.27566250  0.43355400  1
  O  O48  1  0.24493100  0.50000000  0.26479700  1
  O  O49  1  0.24103800  0.50000000  0.72762500  1
  O  O50  1  0.75355700  0.50000000  0.26132400  1
  O  O51  1  0.75438200  0.50000000  0.74561600  1
  O  O52  1  0.82922950  0.71202050  0.58114800  1
  O  O53  1  0.82922950  0.28797950  0.58114800  1
  O  O54  1  0.83876600  0.72023100  0.08954600  1
  O  O55  1  0.83876600  0.27976900  0.08954600  1
  O  O56  1  0.91099200  0.50000000  0.37814700  1
  O  O57  1  0.91105500  0.50000000  0.94371500  1
  O  O58  1  0.92154600  0.00000000  0.95456700  1
  O  O59  1  0.92126500  0.00000000  0.38789400  1
  O  O60  1  0.99370750  0.21648150  0.24497000  1
  O  O61  1  0.99370750  0.78351850  0.24497000  1
  O  O62  1  0.50443000  0.28313500  0.75453500  1
  O  O63  1  0.50443000  0.71686500  0.75453500  1
  O  O64  1  0.57659300  0.50000000  0.04395100  1
  O  O65  1  0.57628400  0.50000000  0.61010700  1
  O  O66  1  0.58782700  0.00000000  0.62473600  1
  O  O67  1  0.58572200  0.00000000  0.04277600  1
  O  O68  1  0.66153250  0.76290250  0.90402800  1
  O  O69  1  0.66153250  0.23709750  0.90402800  1
  O  O70  1  0.66765350  0.22433750  0.43355400  1
  O  O71  1  0.66765350  0.77566250  0.43355400  1
  O  O72  1  0.74493100  0.00000000  0.26479700  1
  O  O73  1  0.74103800  0.00000000  0.72762500  1
