# generated using pymatgen
data_NaInBP2HO9
_symmetry_space_group_name_H-M   'P 1'
_cell_length_a   5.25778300
_cell_length_b   17.06768600
_cell_length_c   9.23949775
_cell_angle_alpha   90.00000000
_cell_angle_beta   121.26626864
_cell_angle_gamma   90.00000000
_symmetry_Int_Tables_number   1
_chemical_formula_structural   NaInBP2HO9
_chemical_formula_sum   'Na4 In4 B4 P8 H4 O36'
_cell_volume   708.71587513
_cell_formula_units_Z   4
loop_
 _symmetry_equiv_pos_site_id
 _symmetry_equiv_pos_as_xyz
  1  'x, y, z'
loop_
 _atom_site_type_symbol
 _atom_site_label
 _atom_site_symmetry_multiplicity
 _atom_site_fract_x
 _atom_site_fract_y
 _atom_site_fract_z
 _atom_site_occupancy
  Na  Na0  1  0.98321700  0.33883100  0.33872500  1
  Na  Na1  1  0.98321700  0.16116900  0.83872500  1
  Na  Na2  1  0.01678300  0.66116900  0.66127500  1
  Na  Na3  1  0.01678300  0.83883100  0.16127500  1
  In  In4  1  0.48431200  0.34420500  0.80608600  1
  In  In5  1  0.48431200  0.15579500  0.30608600  1
  In  In6  1  0.51568800  0.65579500  0.19391400  1
  In  In7  1  0.51568800  0.84420500  0.69391400  1
  B  B8  1  0.34124900  0.47140000  0.25107900  1
  B  B9  1  0.34124900  0.02860000  0.75107900  1
  B  B10  1  0.65875100  0.52860000  0.74892100  1
  B  B11  1  0.65875100  0.97140000  0.24892100  1
  P  P12  1  0.23173300  0.33003400  0.08166100  1
  P  P13  1  0.23173300  0.16996600  0.58166100  1
  P  P14  1  0.76826700  0.66996600  0.91833900  1
  P  P15  1  0.76826700  0.83003400  0.41833900  1
  P  P16  1  0.74438400  0.41237900  0.57297700  1
  P  P17  1  0.74438400  0.08762100  0.07297700  1
  P  P18  1  0.25561600  0.58762100  0.42702300  1
  P  P19  1  0.25561600  0.91237900  0.92702300  1
  H  H20  1  0.54609900  0.50332800  0.92130100  1
  H  H21  1  0.54609900  0.99667200  0.42130100  1
  H  H22  1  0.45390100  0.49667200  0.07869900  1
  H  H23  1  0.45390100  0.00332800  0.57869900  1
  O  O24  1  0.47410500  0.34868200  0.03765900  1
  O  O25  1  0.47410500  0.15131800  0.53765900  1
  O  O26  1  0.52589500  0.65131800  0.96234100  1
  O  O27  1  0.52589500  0.84868200  0.46234100  1
  O  O28  1  0.14736800  0.40789400  0.14115600  1
  O  O29  1  0.14736800  0.09210600  0.64115600  1
  O  O30  1  0.85263200  0.59210600  0.85884400  1
  O  O31  1  0.85263200  0.90789400  0.35884400  1
  O  O32  1  0.59010500  0.47313900  0.84821500  1
  O  O33  1  0.59010500  0.02686100  0.34821500  1
  O  O34  1  0.40989500  0.52686100  0.15178500  1
  O  O35  1  0.40989500  0.97313900  0.65178500  1
  O  O36  1  0.82860000  0.48810000  0.68684700  1
  O  O37  1  0.82860000  0.01190000  0.18684700  1
  O  O38  1  0.17140000  0.51190000  0.31315300  1
  O  O39  1  0.17140000  0.98810000  0.81315300  1
  O  O40  1  0.63030800  0.43879100  0.38631600  1
  O  O41  1  0.63030800  0.06120900  0.88631600  1
  O  O42  1  0.36969200  0.56120900  0.61368400  1
  O  O43  1  0.36969200  0.93879100  0.11368400  1
  O  O44  1  0.35516400  0.27513300  0.23504900  1
  O  O45  1  0.35516400  0.22486700  0.73504900  1
  O  O46  1  0.64483600  0.72486700  0.76495100  1
  O  O47  1  0.64483600  0.77513300  0.26495100  1
  O  O48  1  0.94093900  0.30038700  0.92653900  1
  O  O49  1  0.94093900  0.19961300  0.42653900  1
  O  O50  1  0.05906100  0.69961300  0.07346100  1
  O  O51  1  0.05906100  0.80038700  0.57346100  1
  O  O52  1  0.50021600  0.36666700  0.57938600  1
  O  O53  1  0.50021600  0.13333300  0.07938600  1
  O  O54  1  0.49978400  0.63333300  0.42061400  1
  O  O55  1  0.49978400  0.86666700  0.92061400  1
  O  O56  1  0.02533700  0.36660700  0.62420700  1
  O  O57  1  0.02533700  0.13339300  0.12420700  1
  O  O58  1  0.97466300  0.63339300  0.37579300  1
  O  O59  1  0.97466300  0.86660700  0.87579300  1
