# generated using pymatgen
data_Ba2Sr7I18
_symmetry_space_group_name_H-M   'P 1'
_cell_length_a   10.74593600
_cell_length_b   11.52290988
_cell_length_c   12.09140507
_cell_angle_alpha   79.22676876
_cell_angle_beta   63.64343583
_cell_angle_gamma   83.79392725
_symmetry_Int_Tables_number   1
_chemical_formula_structural   Ba2Sr7I18
_chemical_formula_sum   'Ba2 Sr7 I18'
_cell_volume   1317.39194516
_cell_formula_units_Z   1
loop_
 _symmetry_equiv_pos_site_id
 _symmetry_equiv_pos_as_xyz
  1  'x, y, z'
loop_
 _atom_site_type_symbol
 _atom_site_label
 _atom_site_symmetry_multiplicity
 _atom_site_fract_x
 _atom_site_fract_y
 _atom_site_fract_z
 _atom_site_occupancy
  Ba  Ba0  1  0.53011200  0.38941800  0.78052200  1
  Ba  Ba1  1  0.46988800  0.61058200  0.21947800  1
  Sr  Sr2  1  0.32665300  0.82450300  0.88054000  1
  Sr  Sr3  1  0.00000000  0.50000000  0.00000000  1
  Sr  Sr4  1  0.81653000  0.77913800  0.38444800  1
  Sr  Sr5  1  0.11426800  0.11204400  0.29461800  1
  Sr  Sr6  1  0.88573200  0.88795600  0.70538200  1
  Sr  Sr7  1  0.18347000  0.22086200  0.61555200  1
  Sr  Sr8  1  0.67334700  0.17549700  0.11946000  1
  I  I9  1  0.38565200  0.09891400  0.74813300  1
  I  I10  1  0.51886700  0.69014200  0.63502500  1
  I  I11  1  0.76963700  0.55138600  0.27846000  1
  I  I12  1  0.98796600  0.21147800  0.08682700  1
  I  I13  1  0.79491200  0.02959400  0.48648400  1
  I  I14  1  0.58829700  0.81679500  0.94643800  1
  I  I15  1  0.94264100  0.65380500  0.57899900  1
  I  I16  1  0.16011300  0.84407600  0.19746000  1
  I  I17  1  0.70828200  0.45966200  0.97152100  1
  I  I18  1  0.29171800  0.54033800  0.02847900  1
  I  I19  1  0.83988700  0.15592400  0.80254000  1
  I  I20  1  0.05735900  0.34619500  0.42100100  1
  I  I21  1  0.41170300  0.18320500  0.05356200  1
  I  I22  1  0.20508800  0.97040600  0.51351600  1
  I  I23  1  0.01203400  0.78852200  0.91317300  1
  I  I24  1  0.23036300  0.44861400  0.72154000  1
  I  I25  1  0.48113300  0.30985800  0.36497500  1
  I  I26  1  0.61434800  0.90108600  0.25186700  1
