# generated using pymatgen
data_Li4Mn3V3(SbO8)2
_symmetry_space_group_name_H-M   'P 1'
_cell_length_a   5.93637047
_cell_length_b   6.06861191
_cell_length_c   9.79082322
_cell_angle_alpha   91.67736133
_cell_angle_beta   89.93457821
_cell_angle_gamma   119.28605275
_symmetry_Int_Tables_number   1
_chemical_formula_structural   Li4Mn3V3(SbO8)2
_chemical_formula_sum   'Li4 Mn3 V3 Sb2 O16'
_cell_volume   307.47097155
_cell_formula_units_Z   1
loop_
 _symmetry_equiv_pos_site_id
 _symmetry_equiv_pos_as_xyz
  1  'x, y, z'
loop_
 _atom_site_type_symbol
 _atom_site_label
 _atom_site_symmetry_multiplicity
 _atom_site_fract_x
 _atom_site_fract_y
 _atom_site_fract_z
 _atom_site_occupancy
  Li  Li0  1  0.34099900  0.31930200  0.90224000  1
  Li  Li1  1  0.99491800  0.00541600  0.98903200  1
  Li  Li2  1  0.99255500  0.01305100  0.48775400  1
  Li  Li3  1  0.67068300  0.66221300  0.40304000  1
  Mn  Mn4  1  0.16598700  0.66714300  0.21012100  1
  Mn  Mn5  1  0.33845600  0.82921900  0.71196300  1
  Mn  Mn6  1  0.83224700  0.82892000  0.71197300  1
  V  V7  1  0.17175900  0.17445900  0.21355400  1
  V  V8  1  0.64972900  0.17455500  0.21746100  1
  V  V9  1  0.82922200  0.34107200  0.71717500  1
  Sb  Sb10  1  0.33118500  0.33737700  0.48823300  1
  Sb  Sb11  1  0.66764100  0.66185700  0.98808700  1
  O  O12  1  0.15965500  0.17910400  0.59230900  1
  O  O13  1  0.49136000  0.03439600  0.34490100  1
  O  O14  1  0.36167400  0.30772500  0.10631500  1
  O  O15  1  0.97624400  0.02796300  0.30025800  1
  O  O16  1  0.00036200  0.99886300  0.79959000  1
  O  O17  1  0.66026400  0.18083000  0.59332100  1
  O  O18  1  0.04027800  0.46661900  0.34864600  1
  O  O19  1  0.49575100  0.46603800  0.34929000  1
  O  O20  1  0.82654700  0.33835200  0.09844000  1
  O  O21  1  0.15989500  0.67972900  0.59024100  1
  O  O22  1  0.52658400  0.50136300  0.85227800  1
  O  O23  1  0.97205400  0.49939600  0.85343700  1
  O  O24  1  0.66808600  0.66373900  0.61511600  1
  O  O25  1  0.32887900  0.84692500  0.08969700  1
  O  O26  1  0.52559600  0.94929200  0.84266600  1
  O  O27  1  0.82108800  0.84508200  0.09070100  1
