# generated using pymatgen
data_K6Na2MnH24(WO6)6
_symmetry_space_group_name_H-M   'P 1'
_cell_length_a   13.19288325
_cell_length_b   13.19288325
_cell_length_c   18.59608250
_cell_angle_alpha   90.00000000
_cell_angle_beta   90.00000000
_cell_angle_gamma   120.00000000
_symmetry_Int_Tables_number   1
_chemical_formula_structural   K6Na2MnH24(WO6)6
_chemical_formula_sum   'K18 Na6 Mn3 H72 W18 O108'
_cell_volume   2803.05444981
_cell_formula_units_Z   3
loop_
 _symmetry_equiv_pos_site_id
 _symmetry_equiv_pos_as_xyz
  1  'x, y, z'
loop_
 _atom_site_type_symbol
 _atom_site_label
 _atom_site_symmetry_multiplicity
 _atom_site_fract_x
 _atom_site_fract_y
 _atom_site_fract_z
 _atom_site_occupancy
  K  K0  1  0.95632267  0.47816133  0.14517433  1
  K  K1  1  0.14482800  0.28965600  0.18815900  1
  K  K2  1  0.52183867  0.47816133  0.14517433  1
  K  K3  1  0.14482800  0.85517200  0.18815900  1
  K  K4  1  0.52183867  0.04367733  0.14517433  1
  K  K5  1  0.71034400  0.85517200  0.18815900  1
  K  K6  1  0.62298933  0.81149467  0.47850767  1
  K  K7  1  0.81149467  0.62298933  0.52149233  1
  K  K8  1  0.18850533  0.81149467  0.47850767  1
  K  K9  1  0.81149467  0.18850533  0.52149233  1
  K  K10  1  0.18850533  0.37701067  0.47850767  1
  K  K11  1  0.37701067  0.18850533  0.52149233  1
  K  K12  1  0.28965600  0.14482800  0.81184100  1
  K  K13  1  0.47816133  0.95632267  0.85482567  1
  K  K14  1  0.85517200  0.14482800  0.81184100  1
  K  K15  1  0.47816133  0.52183867  0.85482567  1
  K  K16  1  0.85517200  0.71034400  0.81184100  1
  K  K17  1  0.04367733  0.52183867  0.85482567  1
  Na  Na18  1  0.33333333  0.66666667  0.40621533  1
  Na  Na19  1  0.33333333  0.66666667  0.92711800  1
  Na  Na20  1  0.00000000  0.00000000  0.73954867  1
  Na  Na21  1  0.00000000  0.00000000  0.26045133  1
  Na  Na22  1  0.66666667  0.33333333  0.07288200  1
  Na  Na23  1  0.66666667  0.33333333  0.59378467  1
  Mn  Mn24  1  0.00000000  0.00000000  0.00000000  1
  Mn  Mn25  1  0.66666667  0.33333333  0.33333333  1
  Mn  Mn26  1  0.33333333  0.66666667  0.66666667  1
  H  H27  1  0.08295200  0.54147600  0.44345300  1
  H  H28  1  0.20814267  0.41628533  0.88988033  1
  H  H29  1  0.13294433  0.50685767  0.02420067  1
  H  H30  1  0.17352433  0.46627767  0.30913267  1
  H  H31  1  0.22815900  0.45631800  0.80882700  1
  H  H32  1  0.12298467  0.56149233  0.52450633  1
  H  H33  1  0.13294433  0.62608667  0.02420067  1
  H  H34  1  0.29275333  0.46627767  0.30913267  1
  H  H35  1  0.17352433  0.70724667  0.30913267  1
  H  H36  1  0.37391333  0.50685767  0.02420067  1
  H  H37  1  0.20814267  0.79185733  0.88988033  1
  H  H38  1  0.22815900  0.77184100  0.80882700  1
  H  H39  1  0.43850767  0.56149233  0.52450633  1
  H  H40  1  0.45852400  0.54147600  0.44345300  1
  H  H41  1  0.49314233  0.62608667  0.02420067  1
  H  H42  1  0.29275333  0.82647567  0.30913267  1
  H  H43  1  0.53372233  0.70724667  0.30913267  1
  H  H44  1  0.37391333  0.86705567  0.02420067  1
  H  H45  1  0.54368200  0.77184100  0.80882700  1
  H  H46  1  0.43850767  0.87701533  0.52450633  1
  H  H47  1  0.53372233  0.82647567  0.30913267  1
  H  H48  1  0.49314233  0.86705567  0.02420067  1
  H  H49  1  0.58371467  0.79185733  0.88988033  1
  H  H50  1  0.45852400  0.91704800  0.44345300  1
  H  H51  1  0.74961867  0.87480933  0.77678633  1
  H  H52  1  0.87480933  0.74961867  0.22321367  1
  H  H53  1  0.79961100  0.84019100  0.35753400  1
  H  H54  1  0.84019100  0.79961100  0.64246600  1
  H  H55  1  0.89482567  0.78965133  0.14216033  1
  H  H56  1  0.78965133  0.89482567  0.85783967  1
  H  H57  1  0.79961100  0.95942000  0.35753400  1
  H  H58  1  0.95942000  0.79961100  0.64246600  1
  H  H59  1  0.84019100  0.04058000  0.64246600  1
  H  H60  1  0.04058000  0.84019100  0.35753400  1
  H  H61  1  0.87480933  0.12519067  0.22321367  1
  H  H62  1  0.89482567  0.10517433  0.14216033  1
  H  H63  1  0.10517433  0.89482567  0.85783967  1
  H  H64  1  0.12519067  0.87480933  0.77678633  1
  H  H65  1  0.15980900  0.95942000  0.35753400  1
  H  H66  1  0.95942000  0.15980900  0.64246600  1
  H  H67  1  0.20038900  0.04058000  0.64246600  1
  H  H68  1  0.04058000  0.20038900  0.35753400  1
  H  H69  1  0.21034867  0.10517433  0.14216033  1
  H  H70  1  0.10517433  0.21034867  0.85783967  1
  H  H71  1  0.20038900  0.15980900  0.64246600  1
  H  H72  1  0.15980900  0.20038900  0.35753400  1
  H  H73  1  0.25038133  0.12519067  0.22321367  1
  H  H74  1  0.12519067  0.25038133  0.77678633  1
  H  H75  1  0.41628533  0.20814267  0.11011967  1
  H  H76  1  0.54147600  0.08295200  0.55654700  1
  H  H77  1  0.46627767  0.17352433  0.69086733  1
  H  H78  1  0.50685767  0.13294433  0.97579933  1
  H  H79  1  0.56149233  0.12298467  0.47549367  1
  H  H80  1  0.45631800  0.22815900  0.19117300  1
  H  H81  1  0.46627767  0.29275333  0.69086733  1
  H  H82  1  0.62608667  0.13294433  0.97579933  1
  H  H83  1  0.50685767  0.37391333  0.97579933  1
  H  H84  1  0.70724667  0.17352433  0.69086733  1
  H  H85  1  0.54147600  0.45852400  0.55654700  1
  H  H86  1  0.56149233  0.43850767  0.47549367  1
  H  H87  1  0.77184100  0.22815900  0.19117300  1
  H  H88  1  0.79185733  0.20814267  0.11011967  1
  H  H89  1  0.82647567  0.29275333  0.69086733  1
  H  H90  1  0.62608667  0.49314233  0.97579933  1
  H  H91  1  0.86705567  0.37391333  0.97579933  1
  H  H92  1  0.70724667  0.53372233  0.69086733  1
  H  H93  1  0.87701533  0.43850767  0.47549367  1
  H  H94  1  0.77184100  0.54368200  0.19117300  1
  H  H95  1  0.86705567  0.49314233  0.97579933  1
  H  H96  1  0.82647567  0.53372233  0.69086733  1
  H  H97  1  0.91704800  0.45852400  0.55654700  1
  H  H98  1  0.79185733  0.58371467  0.11011967  1
  W  W99  1  0.00000000  0.24540000  0.00000000  1
  W  W100  1  0.91206667  0.57873333  0.33333333  1
  W  W101  1  0.00000000  0.75460000  0.00000000  1
  W  W102  1  0.24540000  0.00000000  0.00000000  1
  W  W103  1  0.42126667  0.08793333  0.33333333  1
  W  W104  1  0.75460000  0.00000000  0.00000000  1
  W  W105  1  0.66666667  0.57873333  0.33333333  1
  W  W106  1  0.57873333  0.91206667  0.66666667  1
  W  W107  1  0.66666667  0.08793333  0.33333333  1
  W  W108  1  0.91206667  0.33333333  0.33333333  1
  W  W109  1  0.08793333  0.42126667  0.66666667  1
  W  W110  1  0.42126667  0.33333333  0.33333333  1
  W  W111  1  0.33333333  0.91206667  0.66666667  1
  W  W112  1  0.24540000  0.24540000  0.00000000  1
  W  W113  1  0.33333333  0.42126667  0.66666667  1
  W  W114  1  0.57873333  0.66666667  0.66666667  1
  W  W115  1  0.75460000  0.75460000  0.00000000  1
  W  W116  1  0.08793333  0.66666667  0.66666667  1
  O  O117  1  0.81763267  0.40881633  0.28256633  1
  O  O118  1  0.07548300  0.15096600  0.05076700  1
  O  O119  1  0.05788067  0.35861033  0.06731533  1
  O  O120  1  0.02527700  0.39121400  0.26601800  1
  O  O121  1  0.95904467  0.47952233  0.38900633  1
  O  O122  1  0.14618900  0.29237800  0.94432700  1
  O  O123  1  0.30072967  0.35861033  0.06731533  1
  O  O124  1  0.02527700  0.63406300  0.26601800  1
  O  O125  1  0.15304667  0.57652333  0.47485133  1
  O  O126  1  0.24319000  0.48638000  0.85848200  1
  O  O127  1  0.15955067  0.57977533  0.99672833  1
  O  O128  1  0.24644200  0.49288400  0.33660500  1
  O  O129  1  0.36593700  0.39121400  0.26601800  1
  O  O130  1  0.05788067  0.69927033  0.06731533  1
  O  O131  1  0.07548300  0.92451700  0.05076700  1
  O  O132  1  0.24319000  0.75681000  0.85848200  1
  O  O133  1  0.24644200  0.75355800  0.33660500  1
  O  O134  1  0.42347667  0.57652333  0.47485133  1
  O  O135  1  0.14618900  0.85381100  0.94432700  1
  O  O136  1  0.42022467  0.57977533  0.99672833  1
  O  O137  1  0.52047767  0.47952233  0.38900633  1
  O  O138  1  0.59118367  0.40881633  0.28256633  1
  O  O139  1  0.60878600  0.63406300  0.26601800  1
  O  O140  1  0.30072967  0.94211933  0.06731533  1
  O  O141  1  0.50711600  0.75355800  0.33660500  1
  O  O142  1  0.42022467  0.84044933  0.99672833  1
  O  O143  1  0.51362000  0.75681000  0.85848200  1
  O  O144  1  0.42347667  0.84695333  0.47485133  1
  O  O145  1  0.36593700  0.97472300  0.26601800  1
  O  O146  1  0.64138967  0.69927033  0.06731533  1
  O  O147  1  0.52047767  0.04095533  0.38900633  1
  O  O148  1  0.70762200  0.85381100  0.94432700  1
  O  O149  1  0.60878600  0.97472300  0.26601800  1
  O  O150  1  0.64138967  0.94211933  0.06731533  1
  O  O151  1  0.59118367  0.18236733  0.28256633  1
  O  O152  1  0.84903400  0.92451700  0.05076700  1
  O  O153  1  0.48429933  0.74214967  0.61589967  1
  O  O154  1  0.74214967  0.48429933  0.38410033  1
  O  O155  1  0.72454733  0.69194367  0.40064867  1
  O  O156  1  0.69194367  0.72454733  0.59935133  1
  O  O157  1  0.62571133  0.81285567  0.72233967  1
  O  O158  1  0.81285567  0.62571133  0.27766033  1
  O  O159  1  0.96739633  0.69194367  0.40064867  1
  O  O160  1  0.69194367  0.96739633  0.59935133  1
  O  O161  1  0.81971333  0.90985667  0.80818467  1
  O  O162  1  0.90985667  0.81971333  0.19181533  1
  O  O163  1  0.82621733  0.91310867  0.33006167  1
  O  O164  1  0.91310867  0.82621733  0.66993833  1
  O  O165  1  0.03260367  0.72454733  0.59935133  1
  O  O166  1  0.72454733  0.03260367  0.40064867  1
  O  O167  1  0.74214967  0.25785033  0.38410033  1
  O  O168  1  0.90985667  0.09014333  0.19181533  1
  O  O169  1  0.91310867  0.08689133  0.66993833  1
  O  O170  1  0.09014333  0.90985667  0.80818467  1
  O  O171  1  0.81285567  0.18714433  0.27766033  1
  O  O172  1  0.08689133  0.91310867  0.33006167  1
  O  O173  1  0.18714433  0.81285567  0.72233967  1
  O  O174  1  0.25785033  0.74214967  0.61589967  1
  O  O175  1  0.27545267  0.96739633  0.59935133  1
  O  O176  1  0.96739633  0.27545267  0.40064867  1
  O  O177  1  0.17378267  0.08689133  0.66993833  1
  O  O178  1  0.08689133  0.17378267  0.33006167  1
  O  O179  1  0.18028667  0.09014333  0.19181533  1
  O  O180  1  0.09014333  0.18028667  0.80818467  1
  O  O181  1  0.03260367  0.30805633  0.59935133  1
  O  O182  1  0.30805633  0.03260367  0.40064867  1
  O  O183  1  0.18714433  0.37428867  0.72233967  1
  O  O184  1  0.37428867  0.18714433  0.27766033  1
  O  O185  1  0.27545267  0.30805633  0.59935133  1
  O  O186  1  0.30805633  0.27545267  0.40064867  1
  O  O187  1  0.25785033  0.51570067  0.61589967  1
  O  O188  1  0.51570067  0.25785033  0.38410033  1
  O  O189  1  0.15096600  0.07548300  0.94923300  1
  O  O190  1  0.40881633  0.81763267  0.71743367  1
  O  O191  1  0.39121400  0.02527700  0.73398200  1
  O  O192  1  0.35861033  0.05788067  0.93268467  1
  O  O193  1  0.29237800  0.14618900  0.05567300  1
  O  O194  1  0.47952233  0.95904467  0.61099367  1
  O  O195  1  0.63406300  0.02527700  0.73398200  1
  O  O196  1  0.35861033  0.30072967  0.93268467  1
  O  O197  1  0.48638000  0.24319000  0.14151800  1
  O  O198  1  0.57652333  0.15304667  0.52514867  1
  O  O199  1  0.49288400  0.24644200  0.66339500  1
  O  O200  1  0.57977533  0.15955067  0.00327167  1
  O  O201  1  0.69927033  0.05788067  0.93268467  1
  O  O202  1  0.39121400  0.36593700  0.73398200  1
  O  O203  1  0.40881633  0.59118367  0.71743367  1
  O  O204  1  0.57652333  0.42347667  0.52514867  1
  O  O205  1  0.57977533  0.42022467  0.00327167  1
  O  O206  1  0.75681000  0.24319000  0.14151800  1
  O  O207  1  0.47952233  0.52047767  0.61099367  1
  O  O208  1  0.75355800  0.24644200  0.66339500  1
  O  O209  1  0.85381100  0.14618900  0.05567300  1
  O  O210  1  0.92451700  0.07548300  0.94923300  1
  O  O211  1  0.94211933  0.30072967  0.93268467  1
  O  O212  1  0.63406300  0.60878600  0.73398200  1
  O  O213  1  0.84044933  0.42022467  0.00327167  1
  O  O214  1  0.75355800  0.50711600  0.66339500  1
  O  O215  1  0.84695333  0.42347667  0.52514867  1
  O  O216  1  0.75681000  0.51362000  0.14151800  1
  O  O217  1  0.69927033  0.64138967  0.93268467  1
  O  O218  1  0.97472300  0.36593700  0.73398200  1
  O  O219  1  0.85381100  0.70762200  0.05567300  1
  O  O220  1  0.04095533  0.52047767  0.61099367  1
  O  O221  1  0.94211933  0.64138967  0.93268467  1
  O  O222  1  0.97472300  0.60878600  0.73398200  1
  O  O223  1  0.92451700  0.84903400  0.94923300  1
  O  O224  1  0.18236733  0.59118367  0.71743367  1
