# generated using pymatgen
data_Li3Ti(PO4)2
_symmetry_space_group_name_H-M   'P 1'
_cell_length_a   9.37599400
_cell_length_b   4.77125400
_cell_length_c   13.17380321
_cell_angle_alpha   90.00000000
_cell_angle_beta   98.41725148
_cell_angle_gamma   90.00000000
_symmetry_Int_Tables_number   1
_chemical_formula_structural   Li3Ti(PO4)2
_chemical_formula_sum   'Li12 Ti4 P8 O32'
_cell_volume   582.98524510
_cell_formula_units_Z   4
loop_
 _symmetry_equiv_pos_site_id
 _symmetry_equiv_pos_as_xyz
  1  'x, y, z'
loop_
 _atom_site_type_symbol
 _atom_site_label
 _atom_site_symmetry_multiplicity
 _atom_site_fract_x
 _atom_site_fract_y
 _atom_site_fract_z
 _atom_site_occupancy
  Li  Li0  1  0.82996600  0.46915300  0.35193100  1
  Li  Li1  1  0.82996600  0.53084700  0.85193100  1
  Li  Li2  1  0.67003400  0.96915300  0.14806900  1
  Li  Li3  1  0.67003400  0.03084700  0.64806900  1
  Li  Li4  1  0.00000000  0.94583600  0.25000000  1
  Li  Li5  1  0.00000000  0.05416400  0.75000000  1
  Li  Li6  1  0.32996600  0.96915300  0.35193100  1
  Li  Li7  1  0.32996600  0.03084700  0.85193100  1
  Li  Li8  1  0.17003400  0.46915300  0.14806900  1
  Li  Li9  1  0.17003400  0.53084700  0.64806900  1
  Li  Li10  1  0.50000000  0.44583600  0.25000000  1
  Li  Li11  1  0.50000000  0.55416400  0.75000000  1
  Ti  Ti12  1  0.00000000  0.00000000  0.50000000  1
  Ti  Ti13  1  0.00000000  0.00000000  0.00000000  1
  Ti  Ti14  1  0.50000000  0.50000000  0.50000000  1
  Ti  Ti15  1  0.50000000  0.50000000  0.00000000  1
  P  P16  1  0.84145950  0.47635750  0.11534100  1
  P  P17  1  0.84145950  0.52364250  0.61534100  1
  P  P18  1  0.65854050  0.97635750  0.38465900  1
  P  P19  1  0.65854050  0.02364250  0.88465900  1
  P  P20  1  0.34145950  0.97635750  0.11534100  1
  P  P21  1  0.34145950  0.02364250  0.61534100  1
  P  P22  1  0.15854050  0.47635750  0.38465900  1
  P  P23  1  0.15854050  0.52364250  0.88465900  1
  O  O24  1  0.94910200  0.22240300  0.13207300  1
  O  O25  1  0.94910200  0.77759700  0.63207300  1
  O  O26  1  0.88741200  0.65817700  0.02734200  1
  O  O27  1  0.88741200  0.34182300  0.52734200  1
  O  O28  1  0.84300600  0.65694200  0.21194100  1
  O  O29  1  0.81486950  0.85417650  0.41571900  1
  O  O30  1  0.84300600  0.34305800  0.71194100  1
  O  O31  1  0.81486950  0.14582350  0.91571900  1
  O  O32  1  0.68513050  0.35417650  0.08428100  1
  O  O33  1  0.65699400  0.15694200  0.28805900  1
  O  O34  1  0.68513050  0.64582350  0.58428100  1
  O  O35  1  0.65699400  0.84305800  0.78805900  1
  O  O36  1  0.61258800  0.15817700  0.47265800  1
  O  O37  1  0.61258800  0.84182300  0.97265800  1
  O  O38  1  0.55089800  0.72240300  0.36792700  1
  O  O39  1  0.55089800  0.27759700  0.86792700  1
  O  O40  1  0.44910200  0.72240300  0.13207300  1
  O  O41  1  0.44910200  0.27759700  0.63207300  1
  O  O42  1  0.38741200  0.15817700  0.02734200  1
  O  O43  1  0.38741200  0.84182300  0.52734200  1
  O  O44  1  0.34300600  0.15694200  0.21194100  1
  O  O45  1  0.31486950  0.35417650  0.41571900  1
  O  O46  1  0.34300600  0.84305800  0.71194100  1
  O  O47  1  0.31486950  0.64582350  0.91571900  1
  O  O48  1  0.18513050  0.85417650  0.08428100  1
  O  O49  1  0.15699400  0.65694200  0.28805900  1
  O  O50  1  0.18513050  0.14582350  0.58428100  1
  O  O51  1  0.15699400  0.34305800  0.78805900  1
  O  O52  1  0.11258800  0.65817700  0.47265800  1
  O  O53  1  0.11258800  0.34182300  0.97265800  1
  O  O54  1  0.05089800  0.22240300  0.36792700  1
  O  O55  1  0.05089800  0.77759700  0.86792700  1
