# generated using pymatgen
data_NaCa2Al2P2H5O11F4
_symmetry_space_group_name_H-M   'P 1'
_cell_length_a   5.53061400
_cell_length_b   10.78899100
_cell_length_c   9.58467900
_cell_angle_alpha   90.00000000
_cell_angle_beta   105.55073168
_cell_angle_gamma   90.00000000
_symmetry_Int_Tables_number   1
_chemical_formula_structural   NaCa2Al2P2H5O11F4
_chemical_formula_sum   'Na2 Ca4 Al4 P4 H10 O22 F8'
_cell_volume   550.97950272
_cell_formula_units_Z   2
loop_
 _symmetry_equiv_pos_site_id
 _symmetry_equiv_pos_as_xyz
  1  'x, y, z'
loop_
 _atom_site_type_symbol
 _atom_site_label
 _atom_site_symmetry_multiplicity
 _atom_site_fract_x
 _atom_site_fract_y
 _atom_site_fract_z
 _atom_site_occupancy
  Na  Na0  1  0.20698700  0.75000000  0.68647900  1
  Na  Na1  1  0.79301300  0.25000000  0.31352100  1
  Ca  Ca2  1  0.23839700  0.08407600  0.14342900  1
  Ca  Ca3  1  0.76160300  0.58407600  0.85657100  1
  Ca  Ca4  1  0.76160300  0.91592400  0.85657100  1
  Ca  Ca5  1  0.23839700  0.41592400  0.14342900  1
  Al  Al6  1  0.77153700  0.90539300  0.25806400  1
  Al  Al7  1  0.22846300  0.40539300  0.74193600  1
  Al  Al8  1  0.22846300  0.09460700  0.74193600  1
  Al  Al9  1  0.77153700  0.59460700  0.25806400  1
  P  P10  1  0.37239300  0.75000000  0.04395000  1
  P  P11  1  0.62760700  0.25000000  0.95605000  1
  P  P12  1  0.64167000  0.75000000  0.50863200  1
  P  P13  1  0.35833000  0.25000000  0.49136800  1
  H  H14  1  0.98145500  0.75000000  0.15200300  1
  H  H15  1  0.01854500  0.25000000  0.84799700  1
  H  H16  1  0.17275400  0.48119700  0.43692000  1
  H  H17  1  0.82724600  0.98119700  0.56308000  1
  H  H18  1  0.82724600  0.51880300  0.56308000  1
  H  H19  1  0.17275400  0.01880300  0.43692000  1
  H  H20  1  0.22612400  0.62163500  0.39141000  1
  H  H21  1  0.77387600  0.12163500  0.60859000  1
  H  H22  1  0.77387600  0.37836500  0.60859000  1
  H  H23  1  0.22612400  0.87836500  0.39141000  1
  O  O24  1  0.08728200  0.75000000  0.97208800  1
  O  O25  1  0.91271800  0.25000000  0.02791200  1
  O  O26  1  0.89841700  0.75000000  0.23136200  1
  O  O27  1  0.10158300  0.25000000  0.76863800  1
  O  O28  1  0.76211800  0.75000000  0.67496200  1
  O  O29  1  0.23788200  0.25000000  0.32503800  1
  O  O30  1  0.35412300  0.75000000  0.47036900  1
  O  O31  1  0.64587700  0.25000000  0.52963100  1
  O  O32  1  0.52399100  0.75000000  0.92899200  1
  O  O33  1  0.47600900  0.25000000  0.07100800  1
  O  O34  1  0.13020900  0.54216900  0.35433300  1
  O  O35  1  0.86979100  0.04216900  0.64566700  1
  O  O36  1  0.86979100  0.45783100  0.64566700  1
  O  O37  1  0.13020900  0.95783100  0.35433300  1
  O  O38  1  0.73893300  0.63329900  0.44404200  1
  O  O39  1  0.26106700  0.13329900  0.55595800  1
  O  O40  1  0.26106700  0.36670100  0.55595800  1
  O  O41  1  0.73893300  0.86670100  0.44404200  1
  O  O42  1  0.44273500  0.63231200  0.14365900  1
  O  O43  1  0.55726500  0.13231200  0.85634100  1
  O  O44  1  0.55726500  0.36768800  0.85634100  1
  O  O45  1  0.44273500  0.86768800  0.14365900  1
  F  F46  1  0.85772200  0.53339000  0.09615900  1
  F  F47  1  0.14227800  0.03339000  0.90384100  1
  F  F48  1  0.14227800  0.46661000  0.90384100  1
  F  F49  1  0.85772200  0.96661000  0.09615900  1
  F  F50  1  0.34441900  0.55793900  0.71680800  1
  F  F51  1  0.65558100  0.05793900  0.28319200  1
  F  F52  1  0.65558100  0.44206100  0.28319200  1
  F  F53  1  0.34441900  0.94206100  0.71680800  1
