# generated using pymatgen
data_Li8Mn12Ni4O31
_symmetry_space_group_name_H-M   'P 1'
_cell_length_a   8.30185628
_cell_length_b   8.30961992
_cell_length_c   8.31158966
_cell_angle_alpha   90.57610896
_cell_angle_beta   90.30430795
_cell_angle_gamma   90.27382634
_symmetry_Int_Tables_number   1
_chemical_formula_structural   Li8Mn12Ni4O31
_chemical_formula_sum   'Li8 Mn12 Ni4 O31'
_cell_volume   573.33349271
_cell_formula_units_Z   1
loop_
 _symmetry_equiv_pos_site_id
 _symmetry_equiv_pos_as_xyz
  1  'x, y, z'
loop_
 _atom_site_type_symbol
 _atom_site_label
 _atom_site_symmetry_multiplicity
 _atom_site_fract_x
 _atom_site_fract_y
 _atom_site_fract_z
 _atom_site_occupancy
  Li  Li0  1  0.00291000  0.99979700  0.99266300  1
  Li  Li1  1  0.26928600  0.27386800  0.77927900  1
  Li  Li2  1  0.75198000  0.25421300  0.25357500  1
  Li  Li3  1  0.99658200  0.49416700  0.49576500  1
  Li  Li4  1  0.50014400  0.50420500  0.00515100  1
  Li  Li5  1  0.25198000  0.74985200  0.25022600  1
  Li  Li6  1  0.74818400  0.75306900  0.74838000  1
  Li  Li7  1  0.49827200  0.99441300  0.49937500  1
  Mn  Mn8  1  0.62524600  0.12691200  0.87823200  1
  Mn  Mn9  1  0.37765300  0.12532700  0.12499700  1
  Mn  Mn10  1  0.12388300  0.12552600  0.36103600  1
  Mn  Mn11  1  0.87142200  0.37730800  0.87520600  1
  Mn  Mn12  1  0.62080700  0.37547400  0.62769700  1
  Mn  Mn13  1  0.37436200  0.37196200  0.37650900  1
  Mn  Mn14  1  0.87621100  0.62896000  0.12271800  1
  Mn  Mn15  1  0.12315700  0.62175300  0.87254900  1
  Mn  Mn16  1  0.37120200  0.61960600  0.62631400  1
  Mn  Mn17  1  0.62857700  0.87900500  0.12511900  1
  Mn  Mn18  1  0.87697700  0.87749500  0.37343100  1
  Mn  Mn19  1  0.12216900  0.86081000  0.62294100  1
  Ni  Ni20  1  0.85818200  0.12482000  0.62209400  1
  Ni  Ni21  1  0.12589500  0.37509200  0.12345500  1
  Ni  Ni22  1  0.62500900  0.62562900  0.37547800  1
  Ni  Ni23  1  0.37490400  0.87257000  0.87533700  1
  O  O24  1  0.89441500  0.11142000  0.38332200  1
  O  O25  1  0.61606100  0.11407200  0.11325000  1
  O  O26  1  0.15329700  0.12868500  0.11646800  1
  O  O27  1  0.39484100  0.12315700  0.89541500  1
  O  O28  1  0.36114400  0.13673400  0.36185800  1
  O  O29  1  0.62043200  0.14188300  0.64781000  1
  O  O30  1  0.85838800  0.14706700  0.86905600  1
  O  O31  1  0.14244500  0.35480500  0.37247700  1
  O  O32  1  0.37674900  0.35823000  0.14797900  1
  O  O33  1  0.63612100  0.36321000  0.86397700  1
  O  O34  1  0.60699400  0.37594600  0.39890100  1
  O  O35  1  0.85123800  0.37090200  0.64194800  1
  O  O36  1  0.38639400  0.38347500  0.61343200  1
  O  O37  1  0.10016900  0.38969300  0.87707700  1
  O  O38  1  0.87474300  0.39892000  0.10700300  1
  O  O39  1  0.37621400  0.60138100  0.39376900  1
  O  O40  1  0.60247100  0.60653400  0.62526700  1
  O  O41  1  0.88643300  0.61220400  0.88649500  1
  O  O42  1  0.35302100  0.62265100  0.85908400  1
  O  O43  1  0.10729300  0.62434100  0.10360800  1
  O  O44  1  0.13956900  0.61311700  0.64052900  1
  O  O45  1  0.87492000  0.64549800  0.35317500  1
  O  O46  1  0.64384500  0.64956400  0.12608800  1
  O  O47  1  0.35595600  0.84970600  0.62649800  1
  O  O48  1  0.12572900  0.85300200  0.85324500  1
  O  O49  1  0.86509900  0.86548900  0.13811500  1
  O  O50  1  0.89092600  0.88472100  0.60472900  1
  O  O51  1  0.64782800  0.87500900  0.35727700  1
  O  O52  1  0.11277700  0.89337400  0.39097900  1
  O  O53  1  0.39912500  0.89306300  0.12348600  1
  O  O54  1  0.62493000  0.89808100  0.89278800  1
