# generated using pymatgen
data_Sr3Ta4(O6F)2
_symmetry_space_group_name_H-M   'P 1'
_cell_length_a   7.61979569
_cell_length_b   7.61979569
_cell_length_c   18.17982556
_cell_angle_alpha   90.00000000
_cell_angle_beta   90.00000000
_cell_angle_gamma   120.00000000
_symmetry_Int_Tables_number   1
_chemical_formula_structural   Sr3Ta4(O6F)2
_chemical_formula_sum   'Sr9 Ta12 O36 F6'
_cell_volume   914.12796966
_cell_formula_units_Z   3
loop_
 _symmetry_equiv_pos_site_id
 _symmetry_equiv_pos_as_xyz
  1  'x, y, z'
loop_
 _atom_site_type_symbol
 _atom_site_label
 _atom_site_symmetry_multiplicity
 _atom_site_fract_x
 _atom_site_fract_y
 _atom_site_fract_z
 _atom_site_occupancy
  Sr  Sr0  1  0.16666667  0.33333333  0.33333333  1
  Sr  Sr1  1  0.00000000  0.50000000  0.00000000  1
  Sr  Sr2  1  0.50000000  0.50000000  0.00000000  1
  Sr  Sr3  1  0.83333333  0.66666667  0.66666667  1
  Sr  Sr4  1  0.66666667  0.83333333  0.33333333  1
  Sr  Sr5  1  0.16666667  0.83333333  0.33333333  1
  Sr  Sr6  1  0.50000000  0.00000000  0.00000000  1
  Sr  Sr7  1  0.33333333  0.16666667  0.66666667  1
  Sr  Sr8  1  0.83333333  0.16666667  0.66666667  1
  Ta  Ta9  1  0.83333333  0.16666667  0.16666667  1
  Ta  Ta10  1  0.00000000  0.00000000  0.00000000  1
  Ta  Ta11  1  0.33333333  0.16666667  0.16666667  1
  Ta  Ta12  1  0.16666667  0.33333333  0.83333333  1
  Ta  Ta13  1  0.50000000  0.50000000  0.50000000  1
  Ta  Ta14  1  0.66666667  0.33333333  0.33333333  1
  Ta  Ta15  1  0.00000000  0.50000000  0.50000000  1
  Ta  Ta16  1  0.83333333  0.66666667  0.16666667  1
  Ta  Ta17  1  0.16666667  0.83333333  0.83333333  1
  Ta  Ta18  1  0.33333333  0.66666667  0.66666667  1
  Ta  Ta19  1  0.66666667  0.83333333  0.83333333  1
  Ta  Ta20  1  0.50000000  0.00000000  0.50000000  1
  O  O21  1  0.12710433  0.87289567  0.94002367  1
  O  O22  1  0.53956233  0.46043767  0.39330967  1
  O  O23  1  0.54632767  0.09265533  0.14445133  1
  O  O24  1  0.90734467  0.45367233  0.14445133  1
  O  O25  1  0.74579133  0.87289567  0.94002367  1
  O  O26  1  0.12710433  0.25420867  0.94002367  1
  O  O27  1  0.54632767  0.45367233  0.14445133  1
  O  O28  1  0.75932200  0.87966100  0.18888200  1
  O  O29  1  0.53956233  0.07912467  0.39330967  1
  O  O30  1  0.12033900  0.24067800  0.18888200  1
  O  O31  1  0.92087533  0.46043767  0.39330967  1
  O  O32  1  0.12033900  0.87966100  0.18888200  1
  O  O33  1  0.79377100  0.20622900  0.27335700  1
  O  O34  1  0.20622900  0.79377100  0.72664300  1
  O  O35  1  0.21299433  0.42598867  0.47778467  1
  O  O36  1  0.57401133  0.78700567  0.47778467  1
  O  O37  1  0.41245800  0.20622900  0.27335700  1
  O  O38  1  0.79377100  0.58754200  0.27335700  1
  O  O39  1  0.21299433  0.78700567  0.47778467  1
  O  O40  1  0.42598867  0.21299433  0.52221533  1
  O  O41  1  0.20622900  0.41245800  0.72664300  1
  O  O42  1  0.78700567  0.57401133  0.52221533  1
  O  O43  1  0.58754200  0.79377100  0.72664300  1
  O  O44  1  0.78700567  0.21299433  0.52221533  1
  O  O45  1  0.46043767  0.53956233  0.60669033  1
  O  O46  1  0.87289567  0.12710433  0.05997633  1
  O  O47  1  0.87966100  0.75932200  0.81111800  1
  O  O48  1  0.24067800  0.12033900  0.81111800  1
  O  O49  1  0.07912467  0.53956233  0.60669033  1
  O  O50  1  0.46043767  0.92087533  0.60669033  1
  O  O51  1  0.87966100  0.12033900  0.81111800  1
  O  O52  1  0.09265533  0.54632767  0.85554867  1
  O  O53  1  0.87289567  0.74579133  0.05997633  1
  O  O54  1  0.45367233  0.90734467  0.85554867  1
  O  O55  1  0.25420867  0.12710433  0.05997633  1
  O  O56  1  0.45367233  0.54632767  0.85554867  1
  F  F57  1  0.33333333  0.66666667  0.29165267  1
  F  F58  1  0.33333333  0.66666667  0.04168067  1
  F  F59  1  0.00000000  0.00000000  0.62498600  1
  F  F60  1  0.00000000  0.00000000  0.37501400  1
  F  F61  1  0.66666667  0.33333333  0.95831933  1
  F  F62  1  0.66666667  0.33333333  0.70834733  1
