# generated using pymatgen
data_MnPH6NO5
_symmetry_space_group_name_H-M   'P 1'
_cell_length_a   4.89491601
_cell_length_b   5.77897000
_cell_length_c   9.02755552
_cell_angle_alpha   90.00000000
_cell_angle_beta   90.00000000
_cell_angle_gamma   90.00000000
_symmetry_Int_Tables_number   1
_chemical_formula_structural   MnPH6NO5
_chemical_formula_sum   'Mn2 P2 H12 N2 O10'
_cell_volume   255.36763369
_cell_formula_units_Z   2
loop_
 _symmetry_equiv_pos_site_id
 _symmetry_equiv_pos_as_xyz
  1  'x, y, z'
loop_
 _atom_site_type_symbol
 _atom_site_label
 _atom_site_symmetry_multiplicity
 _atom_site_fract_x
 _atom_site_fract_y
 _atom_site_fract_z
 _atom_site_occupancy
  Mn  Mn0  1  0.52744550  0.00000000  0.52497800  1
  Mn  Mn1  1  0.02744550  0.50000000  0.47502200  1
  P  P2  1  0.09623250  0.00000000  0.30124900  1
  P  P3  1  0.59623250  0.50000000  0.69875100  1
  H  H4  1  0.81948700  0.00000000  0.04330100  1
  H  H5  1  0.31948700  0.50000000  0.95669900  1
  H  H6  1  0.46378100  0.00000000  0.04637900  1
  H  H7  1  0.96378100  0.50000000  0.95362100  1
  H  H8  1  0.63694850  0.14762775  0.91379600  1
  H  H9  1  0.63694850  0.85237225  0.91379600  1
  H  H10  1  0.13694850  0.35237225  0.08620400  1
  H  H11  1  0.13694850  0.64762775  0.08620400  1
  H  H12  1  0.07942900  0.13527025  0.69415500  1
  H  H13  1  0.07942900  0.86472975  0.69415500  1
  H  H14  1  0.57942900  0.36472975  0.30584500  1
  H  H15  1  0.57942900  0.63527025  0.30584500  1
  N  N16  1  0.63974150  0.00000000  0.97877500  1
  N  N17  1  0.13974150  0.50000000  0.02122500  1
  O  O18  1  0.79009300  0.00000000  0.33597200  1
  O  O19  1  0.29009300  0.50000000  0.66402800  1
  O  O20  1  0.14089650  0.00000000  0.13051200  1
  O  O21  1  0.64089650  0.50000000  0.86948800  1
  O  O22  1  0.20084150  0.00000000  0.70645200  1
  O  O23  1  0.70084150  0.50000000  0.29354800  1
  O  O24  1  0.24234450  0.21579275  0.37280800  1
  O  O25  1  0.24234450  0.78420725  0.37280800  1
  O  O26  1  0.74234450  0.28420725  0.62719200  1
  O  O27  1  0.74234450  0.71579275  0.62719200  1
