# generated using pymatgen
data_Li5AgF8
_symmetry_space_group_name_H-M   'P 1'
_cell_length_a   5.97218812
_cell_length_b   5.97218812
_cell_length_c   15.13750673
_cell_angle_alpha   90.00000000
_cell_angle_beta   90.00000000
_cell_angle_gamma   120.00000000
_symmetry_Int_Tables_number   1
_chemical_formula_structural   Li5AgF8
_chemical_formula_sum   'Li15 Ag3 F24'
_cell_volume   467.57570724
_cell_formula_units_Z   3
loop_
 _symmetry_equiv_pos_site_id
 _symmetry_equiv_pos_as_xyz
  1  'x, y, z'
loop_
 _atom_site_type_symbol
 _atom_site_label
 _atom_site_symmetry_multiplicity
 _atom_site_fract_x
 _atom_site_fract_y
 _atom_site_fract_z
 _atom_site_occupancy
  Li  Li0  1  0.66666667  0.33333333  0.19229133  1
  Li  Li1  1  0.50000000  0.00000000  0.00000000  1
  Li  Li2  1  0.50000000  0.50000000  0.00000000  1
  Li  Li3  1  0.00000000  0.00000000  0.14104200  1
  Li  Li4  1  0.00000000  0.50000000  0.00000000  1
  Li  Li5  1  0.33333333  0.66666667  0.52562467  1
  Li  Li6  1  0.16666667  0.33333333  0.33333333  1
  Li  Li7  1  0.16666667  0.83333333  0.33333333  1
  Li  Li8  1  0.66666667  0.33333333  0.47437533  1
  Li  Li9  1  0.66666667  0.83333333  0.33333333  1
  Li  Li10  1  0.00000000  0.00000000  0.85895800  1
  Li  Li11  1  0.83333333  0.66666667  0.66666667  1
  Li  Li12  1  0.83333333  0.16666667  0.66666667  1
  Li  Li13  1  0.33333333  0.66666667  0.80770867  1
  Li  Li14  1  0.33333333  0.16666667  0.66666667  1
  Ag  Ag15  1  0.33333333  0.66666667  0.16666667  1
  Ag  Ag16  1  1.00000000  1.00000000  0.50000000  1
  Ag  Ag17  1  0.66666667  0.33333333  0.83333333  1
  F  F18  1  0.17034367  0.82965633  0.08298833  1
  F  F19  1  0.66666667  0.33333333  0.06718133  1
  F  F20  1  0.65931267  0.82965633  0.08298833  1
  F  F21  1  0.17034367  0.34068733  0.08298833  1
  F  F22  1  0.49632300  0.99264600  0.25034500  1
  F  F23  1  0.00735400  0.50367700  0.25034500  1
  F  F24  1  0.00000000  0.00000000  0.26615200  1
  F  F25  1  0.49632300  0.50367700  0.25034500  1
  F  F26  1  0.83701033  0.16298967  0.41632167  1
  F  F27  1  0.33333333  0.66666667  0.40051467  1
  F  F28  1  0.32597933  0.16298967  0.41632167  1
  F  F29  1  0.83701033  0.67402067  0.41632167  1
  F  F30  1  0.16298967  0.32597933  0.58367833  1
  F  F31  1  0.67402067  0.83701033  0.58367833  1
  F  F32  1  0.66666667  0.33333333  0.59948533  1
  F  F33  1  0.16298967  0.83701033  0.58367833  1
  F  F34  1  0.50367700  0.49632300  0.74965500  1
  F  F35  1  0.00000000  0.00000000  0.73384800  1
  F  F36  1  0.99264600  0.49632300  0.74965500  1
  F  F37  1  0.50367700  0.00735400  0.74965500  1
  F  F38  1  0.82965633  0.65931267  0.91701167  1
  F  F39  1  0.34068733  0.17034367  0.91701167  1
  F  F40  1  0.33333333  0.66666667  0.93281867  1
  F  F41  1  0.82965633  0.17034367  0.91701167  1
