# generated using pymatgen
data_NdZrO3
_symmetry_space_group_name_H-M   'P 1'
_cell_length_a   7.56672200
_cell_length_b   7.56672200
_cell_length_c   10.84417600
_cell_angle_alpha   90.00000000
_cell_angle_beta   90.00000000
_cell_angle_gamma   90.00000000
_symmetry_Int_Tables_number   1
_chemical_formula_structural   NdZrO3
_chemical_formula_sum   'Nd8 Zr8 O24'
_cell_volume   620.88635304
_cell_formula_units_Z   8
loop_
 _symmetry_equiv_pos_site_id
 _symmetry_equiv_pos_as_xyz
  1  'x, y, z'
loop_
 _atom_site_type_symbol
 _atom_site_label
 _atom_site_symmetry_multiplicity
 _atom_site_fract_x
 _atom_site_fract_y
 _atom_site_fract_z
 _atom_site_occupancy
  Nd  Nd0  1  0.50000000  0.25894550  0.36634775  1
  Nd  Nd1  1  0.24105450  0.00000000  0.13365225  1
  Nd  Nd2  1  0.75894550  0.00000000  0.13365225  1
  Nd  Nd3  1  0.50000000  0.74105450  0.36634775  1
  Nd  Nd4  1  0.00000000  0.75894550  0.86634775  1
  Nd  Nd5  1  0.74105450  0.50000000  0.63365225  1
  Nd  Nd6  1  0.25894550  0.50000000  0.63365225  1
  Nd  Nd7  1  0.00000000  0.24105450  0.86634775  1
  Zr  Zr8  1  0.24494500  0.50000000  0.12955875  1
  Zr  Zr9  1  0.00000000  0.74494500  0.37044125  1
  Zr  Zr10  1  0.00000000  0.25505500  0.37044125  1
  Zr  Zr11  1  0.75505500  0.50000000  0.12955875  1
  Zr  Zr12  1  0.74494500  0.00000000  0.62955875  1
  Zr  Zr13  1  0.50000000  0.24494500  0.87044125  1
  Zr  Zr14  1  0.50000000  0.75505500  0.87044125  1
  Zr  Zr15  1  0.25505500  0.00000000  0.62955875  1
  O  O16  1  0.22137725  0.72137725  0.25000000  1
  O  O17  1  0.70749175  0.29250825  0.00000000  1
  O  O18  1  0.00000000  0.00000000  0.28440675  1
  O  O19  1  0.00000000  0.00000000  0.00000000  1
  O  O20  1  0.50000000  0.50000000  0.21559325  1
  O  O21  1  0.70749175  0.70749175  0.00000000  1
  O  O22  1  0.22137725  0.27862275  0.25000000  1
  O  O23  1  0.29250825  0.70749175  0.00000000  1
  O  O24  1  0.77862275  0.27862275  0.25000000  1
  O  O25  1  0.50000000  0.00000000  0.25000000  1
  O  O26  1  0.77862275  0.72137725  0.25000000  1
  O  O27  1  0.29250825  0.29250825  0.00000000  1
  O  O28  1  0.72137725  0.22137725  0.75000000  1
  O  O29  1  0.20749175  0.79250825  0.50000000  1
  O  O30  1  0.50000000  0.50000000  0.78440675  1
  O  O31  1  0.50000000  0.50000000  0.50000000  1
  O  O32  1  0.00000000  0.00000000  0.71559325  1
  O  O33  1  0.20749175  0.20749175  0.50000000  1
  O  O34  1  0.72137725  0.77862275  0.75000000  1
  O  O35  1  0.79250825  0.20749175  0.50000000  1
  O  O36  1  0.27862275  0.77862275  0.75000000  1
  O  O37  1  0.00000000  0.50000000  0.75000000  1
  O  O38  1  0.27862275  0.22137725  0.75000000  1
  O  O39  1  0.79250825  0.79250825  0.50000000  1
