# generated using pymatgen
data_Hf2N2O
_symmetry_space_group_name_H-M   'P 1'
_cell_length_a   8.72729360
_cell_length_b   8.73006978
_cell_length_c   8.73213377
_cell_angle_alpha   109.53915138
_cell_angle_beta   109.34299771
_cell_angle_gamma   109.44867254
_symmetry_Int_Tables_number   1
_chemical_formula_structural   Hf2N2O
_chemical_formula_sum   'Hf16 N16 O8'
_cell_volume   512.67016774
_cell_formula_units_Z   8
loop_
 _symmetry_equiv_pos_site_id
 _symmetry_equiv_pos_as_xyz
  1  'x, y, z'
loop_
 _atom_site_type_symbol
 _atom_site_label
 _atom_site_symmetry_multiplicity
 _atom_site_fract_x
 _atom_site_fract_y
 _atom_site_fract_z
 _atom_site_occupancy
  Hf  Hf0  1  0.71772076  0.96061848  0.25846389  1
  Hf  Hf1  1  0.50344903  0.50668725  0.48844322  1
  Hf  Hf2  1  0.25064582  0.70572507  0.53782667  1
  Hf  Hf3  1  0.75074770  0.78183792  0.96987123  1
  Hf  Hf4  1  0.96800778  0.75533975  0.27780001  1
  Hf  Hf5  1  0.47054042  0.75621285  0.78317893  1
  Hf  Hf6  1  0.49353561  0.99808543  0.99037756  1
  Hf  Hf7  1  0.00788536  0.01708241  0.49372188  1
  Hf  Hf8  1  0.98496643  0.49055516  0.01243603  1
  Hf  Hf9  1  0.21597427  0.46857433  0.25161502  1
  Hf  Hf10  1  0.78400407  0.52458569  0.76215023  1
  Hf  Hf11  1  0.03363078  0.25144674  0.70945844  1
  Hf  Hf12  1  0.53538725  0.25365824  0.21374841  1
  Hf  Hf13  1  0.25023597  0.21003565  0.04152150  1
  Hf  Hf14  1  0.74953795  0.28465091  0.45932737  1
  Hf  Hf15  1  0.28508600  0.03889922  0.74709662  1
  N  N16  1  0.50957469  0.73893649  0.53601259  1
  N  N17  1  0.99051373  0.45591081  0.77283183  1
  N  N18  1  0.47025695  0.72742530  0.04180199  1
  N  N19  1  0.96524529  0.00989015  0.26530408  1
  N  N20  1  0.53745577  0.27124951  0.95170665  1
  N  N21  1  0.76989873  0.22584378  0.23756579  1
  N  N22  1  0.03306491  0.98664187  0.74109470  1
  N  N23  1  0.27294719  0.50984370  0.45689264  1
  N  N24  1  0.01179679  0.54551534  0.22590461  1
  N  N25  1  0.22822412  0.95752561  0.03213436  1
  N  N26  1  0.94995376  0.22413751  0.51718748  1
  N  N27  1  0.76152712  0.53530487  0.00983686  1
  N  N28  1  0.54538224  0.03094901  0.72617781  1
  N  N29  1  0.73955647  0.72658442  0.22707781  1
  N  N30  1  0.48694827  0.26415224  0.46828033  1
  N  N31  1  0.27153075  0.24051981  0.27046361  1
  O  O32  1  0.72784158  0.75779500  0.72305651  1
  O  O33  1  0.26244359  0.27521704  0.77483640  1
  O  O34  1  0.44730640  0.96080994  0.27520099  1
  O  O35  1  0.04672165  0.77108188  0.48870090  1
  O  O36  1  0.23973364  0.46679076  0.98101676  1
  O  O37  1  0.77168185  0.04776785  0.97116735  1
  O  O38  1  0.22924314  0.77160612  0.76372399  1
  O  O39  1  0.72979717  0.49450690  0.54498794  1
