# generated using pymatgen
data_ZnNi4O5
_symmetry_space_group_name_H-M   'P 1'
_cell_length_a   13.08800200
_cell_length_b   3.00552200
_cell_length_c   9.96149026
_cell_angle_alpha   90.00000000
_cell_angle_beta   102.01108278
_cell_angle_gamma   90.00000000
_symmetry_Int_Tables_number   1
_chemical_formula_structural   ZnNi4O5
_chemical_formula_sum   'Zn4 Ni16 O20'
_cell_volume   383.26936590
_cell_formula_units_Z   4
loop_
 _symmetry_equiv_pos_site_id
 _symmetry_equiv_pos_as_xyz
  1  'x, y, z'
loop_
 _atom_site_type_symbol
 _atom_site_label
 _atom_site_symmetry_multiplicity
 _atom_site_fract_x
 _atom_site_fract_y
 _atom_site_fract_z
 _atom_site_occupancy
  Zn  Zn0  1  0.60006000  0.50000000  0.29992200  1
  Zn  Zn1  1  0.89994000  0.00000000  0.70007800  1
  Zn  Zn2  1  0.10006000  0.00000000  0.29992200  1
  Zn  Zn3  1  0.39994000  0.50000000  0.70007800  1
  Ni  Ni4  1  0.89968200  0.50000000  0.19940200  1
  Ni  Ni5  1  0.70032900  0.00000000  0.09913300  1
  Ni  Ni6  1  0.60031800  0.00000000  0.80059800  1
  Ni  Ni7  1  0.79967100  0.50000000  0.90086700  1
  Ni  Ni8  1  0.70018000  0.50000000  0.60080600  1
  Ni  Ni9  1  0.00000000  0.00000000  0.00000000  1
  Ni  Ni10  1  0.79982000  0.00000000  0.39919400  1
  Ni  Ni11  1  0.00000000  0.50000000  0.50000000  1
  Ni  Ni12  1  0.39968200  0.00000000  0.19940200  1
  Ni  Ni13  1  0.20032900  0.50000000  0.09913300  1
  Ni  Ni14  1  0.10031800  0.50000000  0.80059800  1
  Ni  Ni15  1  0.29967100  0.00000000  0.90086700  1
  Ni  Ni16  1  0.20018000  0.00000000  0.60080600  1
  Ni  Ni17  1  0.50000000  0.50000000  0.00000000  1
  Ni  Ni18  1  0.29982000  0.50000000  0.39919400  1
  Ni  Ni19  1  0.50000000  0.00000000  0.50000000  1
  O  O20  1  0.75152300  0.50000000  0.24863000  1
  O  O21  1  0.65058300  0.50000000  0.95009000  1
  O  O22  1  0.54891900  0.00000000  0.14694200  1
  O  O23  1  0.84941700  0.00000000  0.04991000  1
  O  O24  1  0.74847700  0.00000000  0.75137000  1
  O  O25  1  0.95108100  0.50000000  0.85305800  1
  O  O26  1  0.84899100  0.50000000  0.54662500  1
  O  O27  1  0.65100900  0.00000000  0.45337500  1
  O  O28  1  0.55134100  0.50000000  0.64947000  1
  O  O29  1  0.94865900  0.00000000  0.35053000  1
  O  O30  1  0.25152300  0.00000000  0.24863000  1
  O  O31  1  0.15058300  0.00000000  0.95009000  1
  O  O32  1  0.04891900  0.50000000  0.14694200  1
  O  O33  1  0.34941700  0.50000000  0.04991000  1
  O  O34  1  0.24847700  0.50000000  0.75137000  1
  O  O35  1  0.45108100  0.00000000  0.85305800  1
  O  O36  1  0.34899100  0.00000000  0.54662500  1
  O  O37  1  0.15100900  0.50000000  0.45337500  1
  O  O38  1  0.05134100  0.00000000  0.64947000  1
  O  O39  1  0.44865900  0.50000000  0.35053000  1
