# generated using pymatgen
data_Ag2H12S(NO)4
_symmetry_space_group_name_H-M   'P 1'
_cell_length_a   8.58282200
_cell_length_b   8.58282200
_cell_length_c   6.45047000
_cell_angle_alpha   90.00000000
_cell_angle_beta   90.00000000
_cell_angle_gamma   90.00000000
_symmetry_Int_Tables_number   1
_chemical_formula_structural   Ag2H12S(NO)4
_chemical_formula_sum   'Ag4 H24 S2 N8 O8'
_cell_volume   475.17279844
_cell_formula_units_Z   2
loop_
 _symmetry_equiv_pos_site_id
 _symmetry_equiv_pos_as_xyz
  1  'x, y, z'
loop_
 _atom_site_type_symbol
 _atom_site_label
 _atom_site_symmetry_multiplicity
 _atom_site_fract_x
 _atom_site_fract_y
 _atom_site_fract_z
 _atom_site_occupancy
  Ag  Ag0  1  0.00000000  0.50000000  0.98514300  1
  Ag  Ag1  1  0.50000000  0.00000000  0.51485700  1
  Ag  Ag2  1  0.50000000  0.00000000  0.01485700  1
  Ag  Ag3  1  0.00000000  0.50000000  0.48514300  1
  H  H4  1  0.70208200  0.58475300  0.88022700  1
  H  H5  1  0.20208200  0.91524700  0.61977300  1
  H  H6  1  0.29791800  0.41524700  0.88022700  1
  H  H7  1  0.79791800  0.08475300  0.61977300  1
  H  H8  1  0.58475300  0.29791800  0.11977300  1
  H  H9  1  0.91524700  0.79791800  0.38022700  1
  H  H10  1  0.41524700  0.70208200  0.11977300  1
  H  H11  1  0.08475300  0.20208200  0.38022700  1
  H  H12  1  0.78755500  0.71857100  0.02917400  1
  H  H13  1  0.28755500  0.78142900  0.47082600  1
  H  H14  1  0.21244500  0.28142900  0.02917400  1
  H  H15  1  0.71244500  0.21857100  0.47082600  1
  H  H16  1  0.71857100  0.21244500  0.97082600  1
  H  H17  1  0.78142900  0.71244500  0.52917400  1
  H  H18  1  0.28142900  0.78755500  0.97082600  1
  H  H19  1  0.21857100  0.28755500  0.52917400  1
  H  H20  1  0.71659700  0.55565800  0.13653200  1
  H  H21  1  0.21659700  0.94434200  0.36346800  1
  H  H22  1  0.28340300  0.44434200  0.13653200  1
  H  H23  1  0.78340300  0.05565800  0.36346800  1
  H  H24  1  0.55565800  0.28340300  0.86346800  1
  H  H25  1  0.94434200  0.78340300  0.63653200  1
  H  H26  1  0.44434200  0.71659700  0.86346800  1
  H  H27  1  0.05565800  0.21659700  0.63653200  1
  S  S28  1  0.50000000  0.50000000  0.50000000  1
  S  S29  1  0.00000000  0.00000000  0.00000000  1
  N  N30  1  0.77234400  0.60048900  0.00796700  1
  N  N31  1  0.27234400  0.89951100  0.49203300  1
  N  N32  1  0.22765600  0.39951100  0.00796700  1
  N  N33  1  0.72765600  0.10048900  0.49203300  1
  N  N34  1  0.60048900  0.22765600  0.99203300  1
  N  N35  1  0.89951100  0.72765600  0.50796700  1
  N  N36  1  0.39951100  0.77234400  0.99203300  1
  N  N37  1  0.10048900  0.27234400  0.50796700  1
  O  O38  1  0.56506300  0.62724100  0.63344300  1
  O  O39  1  0.06506300  0.87275900  0.86655700  1
  O  O40  1  0.43493700  0.37275900  0.63344300  1
  O  O41  1  0.93493700  0.12724100  0.86655700  1
  O  O42  1  0.62724100  0.43493700  0.36655700  1
  O  O43  1  0.87275900  0.93493700  0.13344300  1
  O  O44  1  0.37275900  0.56506300  0.36655700  1
  O  O45  1  0.12724100  0.06506300  0.13344300  1
