# generated using pymatgen
data_Fe3Co2P6WO24
_symmetry_space_group_name_H-M   'P 1'
_cell_length_a   8.67777818
_cell_length_b   8.67777818
_cell_length_c   20.82268671
_cell_angle_alpha   90.00000000
_cell_angle_beta   90.00000000
_cell_angle_gamma   120.00000000
_symmetry_Int_Tables_number   1
_chemical_formula_structural   Fe3Co2P6WO24
_chemical_formula_sum   'Fe9 Co6 P18 W3 O72'
_cell_volume   1357.95220747
_cell_formula_units_Z   3
loop_
 _symmetry_equiv_pos_site_id
 _symmetry_equiv_pos_as_xyz
  1  'x, y, z'
loop_
 _atom_site_type_symbol
 _atom_site_label
 _atom_site_symmetry_multiplicity
 _atom_site_fract_x
 _atom_site_fract_y
 _atom_site_fract_z
 _atom_site_occupancy
  Fe  Fe0  1  0.33333333  0.66666667  0.30948167  1
  Fe  Fe1  1  0.33333333  0.66666667  0.52121867  1
  Fe  Fe2  1  0.33333333  0.66666667  0.02330667  1
  Fe  Fe3  1  0.00000000  0.00000000  0.64281500  1
  Fe  Fe4  1  0.00000000  0.00000000  0.85455200  1
  Fe  Fe5  1  0.00000000  0.00000000  0.35664000  1
  Fe  Fe6  1  0.66666667  0.33333333  0.97614833  1
  Fe  Fe7  1  0.66666667  0.33333333  0.18788533  1
  Fe  Fe8  1  0.66666667  0.33333333  0.68997333  1
  Co  Co9  1  0.33333333  0.66666667  0.66116267  1
  Co  Co10  1  0.33333333  0.66666667  0.16578167  1
  Co  Co11  1  0.00000000  0.00000000  0.99449600  1
  Co  Co12  1  0.00000000  0.00000000  0.49911500  1
  Co  Co13  1  0.66666667  0.33333333  0.32782933  1
  Co  Co14  1  0.66666667  0.33333333  0.83244833  1
  P  P15  1  0.70183500  0.70334300  0.25201600  1
  P  P16  1  0.29665700  0.99849200  0.25201600  1
  P  P17  1  0.00150800  0.29816500  0.25201600  1
  P  P18  1  0.66124933  0.03899467  0.08358267  1
  P  P19  1  0.37774533  0.33875067  0.08358267  1
  P  P20  1  0.96100533  0.62225467  0.08358267  1
  P  P21  1  0.36850167  0.03667633  0.58534933  1
  P  P22  1  0.96332367  0.33182533  0.58534933  1
  P  P23  1  0.66817467  0.63149833  0.58534933  1
  P  P24  1  0.32791600  0.37232800  0.41691600  1
  P  P25  1  0.04441200  0.67208400  0.41691600  1
  P  P26  1  0.62767200  0.95558800  0.41691600  1
  P  P27  1  0.03516833  0.37000967  0.91868267  1
  P  P28  1  0.62999033  0.66515867  0.91868267  1
  P  P29  1  0.33484133  0.96483167  0.91868267  1
  P  P30  1  0.99458267  0.70566133  0.75024933  1
  P  P31  1  0.71107867  0.00541733  0.75024933  1
  P  P32  1  0.29433867  0.28892133  0.75024933  1
  W  W33  1  0.33333333  0.66666667  0.80893767  1
  W  W34  1  0.00000000  0.00000000  0.14227100  1
  W  W35  1  0.66666667  0.33333333  0.47560433  1
  O  O36  1  0.52346267  0.65590333  0.97757733  1
  O  O37  1  0.34409667  0.86755933  0.97757733  1
  O  O38  1  0.13244067  0.47653733  0.97757733  1
  O  O39  1  0.68340967  0.51682533  0.25778433  1
  O  O40  1  0.14427067  0.46751233  0.85632533  1
  O  O41  1  0.51806233  0.68748967  0.24043167  1
  O  O42  1  0.48317467  0.16658433  0.25778433  1
  O  O43  1  0.31251033  0.83057267  0.24043167  1
  O  O44  1  0.67523500  0.14160100  0.14445600  1
  O  O45  1  0.16942733  0.48193767  0.24043167  1
  O  O46  1  0.83140800  0.01246400  0.07747200  1
  O  O47  1  0.46636600  0.32476500  0.14445600  1
  O  O48  1  0.53248767  0.67675833  0.85632533  1
  O  O49  1  0.83341567  0.31659033  0.25778433  1
  O  O50  1  0.49871967  0.84906933  0.09134833  1
  O  O51  1  0.32324167  0.85572933  0.85632533  1
  O  O52  1  0.35034967  0.50128033  0.09134833  1
  O  O53  1  0.18105600  0.16859200  0.07747200  1
  O  O54  1  0.15093067  0.64965033  0.09134833  1
  O  O55  1  0.85839900  0.53363400  0.14445600  1
  O  O56  1  0.98753600  0.81894400  0.07747200  1
  O  O57  1  0.53045867  0.86277733  0.35570933  1
  O  O58  1  0.33231867  0.46954133  0.35570933  1
  O  O59  1  0.13722267  0.66768133  0.35570933  1
  O  O60  1  0.19012933  0.98923667  0.31091067  1
  O  O61  1  0.01076333  0.20089267  0.31091067  1
  O  O62  1  0.79910733  0.80987067  0.31091067  1
  O  O63  1  0.35007633  0.85015867  0.59111767  1
  O  O64  1  0.81093733  0.80084567  0.18965867  1
  O  O65  1  0.18472900  0.02082300  0.57376500  1
  O  O66  1  0.14984133  0.49991767  0.59111767  1
  O  O67  1  0.97917700  0.16390600  0.57376500  1
  O  O68  1  0.34190167  0.47493433  0.47778933  1
  O  O69  1  0.83609400  0.81527100  0.57376500  1
  O  O70  1  0.49807467  0.34579733  0.41080533  1
  O  O71  1  0.13303267  0.65809833  0.47778933  1
  O  O72  1  0.19915433  0.01009167  0.18965867  1
  O  O73  1  0.50008233  0.64992367  0.59111767  1
  O  O74  1  0.16538633  0.18240267  0.42468167  1
  O  O75  1  0.98990833  0.18906267  0.18965867  1
  O  O76  1  0.01701633  0.83461367  0.42468167  1
  O  O77  1  0.84772267  0.50192533  0.41080533  1
  O  O78  1  0.81759733  0.98298367  0.42468167  1
  O  O79  1  0.52506567  0.86696733  0.47778933  1
  O  O80  1  0.65420267  0.15227733  0.41080533  1
  O  O81  1  0.19712533  0.19611067  0.68904267  1
  O  O82  1  0.99898533  0.80287467  0.68904267  1
  O  O83  1  0.80388933  0.00101467  0.68904267  1
  O  O84  1  0.85679600  0.32257000  0.64424400  1
  O  O85  1  0.67743000  0.53422600  0.64424400  1
  O  O86  1  0.46577400  0.14320400  0.64424400  1
  O  O87  1  0.01674300  0.18349200  0.92445100  1
  O  O88  1  0.47760400  0.13417900  0.52299200  1
  O  O89  1  0.85139567  0.35415633  0.90709833  1
  O  O90  1  0.81650800  0.83325100  0.92445100  1
  O  O91  1  0.64584367  0.49723933  0.90709833  1
  O  O92  1  0.00856833  0.80826767  0.81112267  1
  O  O93  1  0.50276067  0.14860433  0.90709833  1
  O  O94  1  0.16474133  0.67913067  0.74413867  1
  O  O95  1  0.79969933  0.99143167  0.81112267  1
  O  O96  1  0.86582100  0.34342500  0.52299200  1
  O  O97  1  0.16674900  0.98325700  0.92445100  1
  O  O98  1  0.83205300  0.51573600  0.75801500  1
  O  O99  1  0.65657500  0.52239600  0.52299200  1
  O  O100  1  0.68368300  0.16794700  0.75801500  1
  O  O101  1  0.51438933  0.83525867  0.74413867  1
  O  O102  1  0.48426400  0.31631700  0.75801500  1
  O  O103  1  0.19173233  0.20030067  0.81112267  1
  O  O104  1  0.32086933  0.48561067  0.74413867  1
  O  O105  1  0.86379200  0.52944400  0.02237600  1
  O  O106  1  0.66565200  0.13620800  0.02237600  1
  O  O107  1  0.47055600  0.33434800  0.02237600  1
