# generated using pymatgen
data_Li2MnCr3O8
_symmetry_space_group_name_H-M   'P 1'
_cell_length_a   11.80226800
_cell_length_b   11.90991600
_cell_length_c   8.34946000
_cell_angle_alpha   90.00000000
_cell_angle_beta   90.00000000
_cell_angle_gamma   90.00000000
_symmetry_Int_Tables_number   1
_chemical_formula_structural   Li2MnCr3O8
_chemical_formula_sum   'Li16 Mn8 Cr24 O64'
_cell_volume   1173.63366652
_cell_formula_units_Z   8
loop_
 _symmetry_equiv_pos_site_id
 _symmetry_equiv_pos_as_xyz
  1  'x, y, z'
loop_
 _atom_site_type_symbol
 _atom_site_label
 _atom_site_symmetry_multiplicity
 _atom_site_fract_x
 _atom_site_fract_y
 _atom_site_fract_z
 _atom_site_occupancy
  Li  Li0  1  0.62445200  0.87503200  0.62473100  1
  Li  Li1  1  0.37554800  0.87503200  0.87526900  1
  Li  Li2  1  0.87479100  0.87549900  0.87741300  1
  Li  Li3  1  0.87479100  0.12450100  0.12258700  1
  Li  Li4  1  0.37554800  0.12496800  0.12473100  1
  Li  Li5  1  0.62445200  0.12496800  0.37526900  1
  Li  Li6  1  0.12520900  0.12450100  0.37741300  1
  Li  Li7  1  0.12520900  0.87549900  0.62258700  1
  Li  Li8  1  0.12445200  0.37503200  0.62473100  1
  Li  Li9  1  0.87554800  0.37503200  0.87526900  1
  Li  Li10  1  0.37479100  0.37549900  0.87741300  1
  Li  Li11  1  0.37479100  0.62450100  0.12258700  1
  Li  Li12  1  0.87554800  0.62496800  0.12473100  1
  Li  Li13  1  0.12445200  0.62496800  0.37526900  1
  Li  Li14  1  0.62520900  0.62450100  0.37741300  1
  Li  Li15  1  0.62520900  0.37549900  0.62258700  1
  Mn  Mn16  1  0.50000000  0.62500400  0.75000000  1
  Mn  Mn17  1  0.62516900  0.00000000  0.00000000  1
  Mn  Mn18  1  0.50000000  0.37499600  0.25000000  1
  Mn  Mn19  1  0.37483100  0.00000000  0.50000000  1
  Mn  Mn20  1  0.00000000  0.12500400  0.75000000  1
  Mn  Mn21  1  0.12516900  0.50000000  0.00000000  1
  Mn  Mn22  1  0.00000000  0.87499600  0.25000000  1
  Mn  Mn23  1  0.87483100  0.50000000  0.50000000  1
  Cr  Cr24  1  0.75048600  0.12499400  0.74917900  1
  Cr  Cr25  1  0.50000000  0.12324900  0.75000000  1
  Cr  Cr26  1  0.24951400  0.12499400  0.75082100  1
  Cr  Cr27  1  0.62557250  0.24892350  0.00181500  1
  Cr  Cr28  1  0.12499600  0.00000000  0.00000000  1
  Cr  Cr29  1  0.62557250  0.75107650  0.99818500  1
  Cr  Cr30  1  0.24951400  0.87500600  0.24917900  1
  Cr  Cr31  1  0.50000000  0.87675100  0.25000000  1
  Cr  Cr32  1  0.75048600  0.87500600  0.25082100  1
  Cr  Cr33  1  0.37442750  0.75107650  0.50181500  1
  Cr  Cr34  1  0.87500400  0.00000000  0.50000000  1
  Cr  Cr35  1  0.37442750  0.24892350  0.49818500  1
  Cr  Cr36  1  0.25048600  0.62499400  0.74917900  1
  Cr  Cr37  1  0.00000000  0.62324900  0.75000000  1
  Cr  Cr38  1  0.74951400  0.62499400  0.75082100  1
  Cr  Cr39  1  0.12557250  0.74892350  0.00181500  1
  Cr  Cr40  1  0.62499600  0.50000000  0.00000000  1
  Cr  Cr41  1  0.12557250  0.25107650  0.99818500  1
  Cr  Cr42  1  0.74951400  0.37500600  0.24917900  1
  Cr  Cr43  1  0.00000000  0.37675100  0.25000000  1
  Cr  Cr44  1  0.25048600  0.37500600  0.25082100  1
  Cr  Cr45  1  0.87442750  0.25107650  0.50181500  1
  Cr  Cr46  1  0.37500400  0.50000000  0.50000000  1
  Cr  Cr47  1  0.87442750  0.74892350  0.49818500  1
  O  O48  1  0.37562100  0.73298900  0.74690300  1
  O  O49  1  0.87772100  0.01430800  0.74123400  1
  O  O50  1  0.37032800  0.23339300  0.74134300  1
  O  O51  1  0.63017850  0.01157350  0.76654300  1
  O  O52  1  0.36982150  0.01157350  0.73345700  1
  O  O53  1  0.62967200  0.23339300  0.75865700  1
  O  O54  1  0.12227900  0.01430800  0.75876600  1
  O  O55  1  0.62437900  0.73298900  0.75309700  1
  O  O56  1  0.73740250  0.12264750  0.98491700  1
  O  O57  1  0.51458700  0.12010900  0.99059500  1
  O  O58  1  0.23989050  0.12720650  0.97895300  1
  O  O59  1  0.51112500  0.37435100  0.01838000  1
  O  O60  1  0.51112500  0.62564900  0.98162000  1
  O  O61  1  0.23989050  0.87279350  0.02104700  1
  O  O62  1  0.51458700  0.87989100  0.00940500  1
  O  O63  1  0.73740250  0.87735250  0.01508300  1
  O  O64  1  0.62437900  0.26701100  0.24690300  1
  O  O65  1  0.12227900  0.98569200  0.24123400  1
  O  O66  1  0.62967200  0.76660700  0.24134300  1
  O  O67  1  0.36982150  0.98842650  0.26654300  1
  O  O68  1  0.63017850  0.98842650  0.23345700  1
  O  O69  1  0.37032800  0.76660700  0.25865700  1
  O  O70  1  0.87772100  0.98569200  0.25876600  1
  O  O71  1  0.37562100  0.26701100  0.25309700  1
  O  O72  1  0.26259750  0.87735250  0.48491700  1
  O  O73  1  0.48541300  0.87989100  0.49059500  1
  O  O74  1  0.76010950  0.87279350  0.47895300  1
  O  O75  1  0.48887500  0.62564900  0.51838000  1
  O  O76  1  0.48887500  0.37435100  0.48162000  1
  O  O77  1  0.76010950  0.12720650  0.52104700  1
  O  O78  1  0.48541300  0.12010900  0.50940500  1
  O  O79  1  0.26259750  0.12264750  0.51508300  1
  O  O80  1  0.87562100  0.23298900  0.74690300  1
  O  O81  1  0.37772100  0.51430800  0.74123400  1
  O  O82  1  0.87032800  0.73339300  0.74134300  1
  O  O83  1  0.13017850  0.51157350  0.76654300  1
  O  O84  1  0.86982150  0.51157350  0.73345700  1
  O  O85  1  0.12967200  0.73339300  0.75865700  1
  O  O86  1  0.62227900  0.51430800  0.75876600  1
  O  O87  1  0.12437900  0.23298900  0.75309700  1
  O  O88  1  0.23740250  0.62264750  0.98491700  1
  O  O89  1  0.01458700  0.62010900  0.99059500  1
  O  O90  1  0.73989050  0.62720650  0.97895300  1
  O  O91  1  0.01112500  0.87435100  0.01838000  1
  O  O92  1  0.01112500  0.12564900  0.98162000  1
  O  O93  1  0.73989050  0.37279350  0.02104700  1
  O  O94  1  0.01458700  0.37989100  0.00940500  1
  O  O95  1  0.23740250  0.37735250  0.01508300  1
  O  O96  1  0.12437900  0.76701100  0.24690300  1
  O  O97  1  0.62227900  0.48569200  0.24123400  1
  O  O98  1  0.12967200  0.26660700  0.24134300  1
  O  O99  1  0.86982150  0.48842650  0.26654300  1
  O  O100  1  0.13017850  0.48842650  0.23345700  1
  O  O101  1  0.87032800  0.26660700  0.25865700  1
  O  O102  1  0.37772100  0.48569200  0.25876600  1
  O  O103  1  0.87562100  0.76701100  0.25309700  1
  O  O104  1  0.76259750  0.37735250  0.48491700  1
  O  O105  1  0.98541300  0.37989100  0.49059500  1
  O  O106  1  0.26010950  0.37279350  0.47895300  1
  O  O107  1  0.98887500  0.12564900  0.51838000  1
  O  O108  1  0.98887500  0.87435100  0.48162000  1
  O  O109  1  0.26010950  0.62720650  0.52104700  1
  O  O110  1  0.98541300  0.62010900  0.50940500  1
  O  O111  1  0.76259750  0.62264750  0.51508300  1
