# generated using pymatgen
data_BaLa2O4
_symmetry_space_group_name_H-M   'P 1'
_cell_length_a   11.04300200
_cell_length_b   6.52337400
_cell_length_c   23.54910870
_cell_angle_alpha   90.00000000
_cell_angle_beta   90.73596433
_cell_angle_gamma   90.00000000
_symmetry_Int_Tables_number   1
_chemical_formula_structural   BaLa2O4
_chemical_formula_sum   'Ba12 La24 O48'
_cell_volume   1696.28208198
_cell_formula_units_Z   12
loop_
 _symmetry_equiv_pos_site_id
 _symmetry_equiv_pos_as_xyz
  1  'x, y, z'
loop_
 _atom_site_type_symbol
 _atom_site_label
 _atom_site_symmetry_multiplicity
 _atom_site_fract_x
 _atom_site_fract_y
 _atom_site_fract_z
 _atom_site_occupancy
  Ba  Ba0  1  0.33765350  0.88969950  0.84934900  1
  Ba  Ba1  1  0.33765350  0.11030050  0.34934900  1
  Ba  Ba2  1  0.50000000  0.38983500  0.75000000  1
  Ba  Ba3  1  0.50000000  0.61016500  0.25000000  1
  Ba  Ba4  1  0.66234650  0.11030050  0.15065100  1
  Ba  Ba5  1  0.66234650  0.88969950  0.65065100  1
  Ba  Ba6  1  0.83765350  0.38969950  0.84934900  1
  Ba  Ba7  1  0.83765350  0.61030050  0.34934900  1
  Ba  Ba8  1  0.00000000  0.88983500  0.75000000  1
  Ba  Ba9  1  0.00000000  0.11016500  0.25000000  1
  Ba  Ba10  1  0.16234650  0.61030050  0.15065100  1
  Ba  Ba11  1  0.16234650  0.38969950  0.65065100  1
  La  La12  1  0.33048500  0.88761400  0.69409900  1
  La  La13  1  0.33048500  0.11238600  0.19409900  1
  La  La14  1  0.33665450  0.89081850  0.55042000  1
  La  La15  1  0.33665450  0.10918150  0.05042000  1
  La  La16  1  0.49607250  0.38736350  0.57354900  1
  La  La17  1  0.49607250  0.61263650  0.07354900  1
  La  La18  1  0.50392750  0.61263650  0.42645100  1
  La  La19  1  0.50392750  0.38736350  0.92645100  1
  La  La20  1  0.66334550  0.89081850  0.94958000  1
  La  La21  1  0.66334550  0.10918150  0.44958000  1
  La  La22  1  0.66951500  0.88761400  0.80590100  1
  La  La23  1  0.66951500  0.11238600  0.30590100  1
  La  La24  1  0.83048500  0.38761400  0.69409900  1
  La  La25  1  0.83048500  0.61238600  0.19409900  1
  La  La26  1  0.83665450  0.39081850  0.55042000  1
  La  La27  1  0.83665450  0.60918150  0.05042000  1
  La  La28  1  0.99607250  0.88736350  0.57354900  1
  La  La29  1  0.99607250  0.11263650  0.07354900  1
  La  La30  1  0.00392750  0.11263650  0.42645100  1
  La  La31  1  0.00392750  0.88736350  0.92645100  1
  La  La32  1  0.16334550  0.39081850  0.94958000  1
  La  La33  1  0.16334550  0.60918150  0.44958000  1
  La  La34  1  0.16951500  0.38761400  0.80590100  1
  La  La35  1  0.16951500  0.61238600  0.30590100  1
  O  O36  1  0.14479600  0.93410700  0.49681200  1
  O  O37  1  0.14479600  0.06589300  0.99681200  1
  O  O38  1  0.67153150  0.29145150  0.62449200  1
  O  O39  1  0.67153150  0.70854850  0.12449200  1
  O  O40  1  0.20219850  0.89917550  0.24714200  1
  O  O41  1  0.20219850  0.10082450  0.74714200  1
  O  O42  1  0.36296950  0.16593850  0.62107900  1
  O  O43  1  0.36296950  0.83406150  0.12107900  1
  O  O44  1  0.45833700  0.30927700  0.12415400  1
  O  O45  1  0.45833700  0.69072300  0.62415400  1
  O  O46  1  0.50000000  0.98917300  0.75000000  1
  O  O47  1  0.50000000  0.00000000  0.00000000  1
  O  O48  1  0.50000000  0.00000000  0.50000000  1
  O  O49  1  0.50000000  0.01082700  0.25000000  1
  O  O50  1  0.54166300  0.30927700  0.37584600  1
  O  O51  1  0.54166300  0.69072300  0.87584600  1
  O  O52  1  0.63703050  0.16593850  0.87892100  1
  O  O53  1  0.63703050  0.83406150  0.37892100  1
  O  O54  1  0.79780150  0.10082450  0.75285800  1
  O  O55  1  0.79780150  0.89917550  0.25285800  1
  O  O56  1  0.32846850  0.29145150  0.87550800  1
  O  O57  1  0.32846850  0.70854850  0.37550800  1
  O  O58  1  0.85520400  0.06589300  0.50318800  1
  O  O59  1  0.85520400  0.93410700  0.00318800  1
  O  O60  1  0.64479600  0.43410700  0.49681200  1
  O  O61  1  0.64479600  0.56589300  0.99681200  1
  O  O62  1  0.17153150  0.79145150  0.62449200  1
  O  O63  1  0.17153150  0.20854850  0.12449200  1
  O  O64  1  0.70219850  0.39917550  0.24714200  1
  O  O65  1  0.70219850  0.60082450  0.74714200  1
  O  O66  1  0.86296950  0.66593850  0.62107900  1
  O  O67  1  0.86296950  0.33406150  0.12107900  1
  O  O68  1  0.95833700  0.80927700  0.12415400  1
  O  O69  1  0.95833700  0.19072300  0.62415400  1
  O  O70  1  0.00000000  0.48917300  0.75000000  1
  O  O71  1  0.00000000  0.50000000  0.00000000  1
  O  O72  1  0.00000000  0.50000000  0.50000000  1
  O  O73  1  0.00000000  0.51082700  0.25000000  1
  O  O74  1  0.04166300  0.80927700  0.37584600  1
  O  O75  1  0.04166300  0.19072300  0.87584600  1
  O  O76  1  0.13703050  0.66593850  0.87892100  1
  O  O77  1  0.13703050  0.33406150  0.37892100  1
  O  O78  1  0.29780150  0.60082450  0.75285800  1
  O  O79  1  0.29780150  0.39917550  0.25285800  1
  O  O80  1  0.82846850  0.79145150  0.87550800  1
  O  O81  1  0.82846850  0.20854850  0.37550800  1
  O  O82  1  0.35520400  0.56589300  0.50318800  1
  O  O83  1  0.35520400  0.43410700  0.00318800  1
