# generated using pymatgen
data_Ba3Y2Br12
_symmetry_space_group_name_H-M   'P 1'
_cell_length_a   10.88839400
_cell_length_b   15.87655400
_cell_length_c   15.93641107
_cell_angle_alpha   90.00000000
_cell_angle_beta   108.59625720
_cell_angle_gamma   90.00000000
_symmetry_Int_Tables_number   1
_chemical_formula_structural   Ba3Y2Br12
_chemical_formula_sum   'Ba12 Y8 Br48'
_cell_volume   2611.09318834
_cell_formula_units_Z   4
loop_
 _symmetry_equiv_pos_site_id
 _symmetry_equiv_pos_as_xyz
  1  'x, y, z'
loop_
 _atom_site_type_symbol
 _atom_site_label
 _atom_site_symmetry_multiplicity
 _atom_site_fract_x
 _atom_site_fract_y
 _atom_site_fract_z
 _atom_site_occupancy
  Ba  Ba0  1  0.33412450  0.11324550  0.92666400  1
  Ba  Ba1  1  0.50000000  0.36221400  0.75000000  1
  Ba  Ba2  1  0.33412450  0.88675450  0.42666400  1
  Ba  Ba3  1  0.66587550  0.11324550  0.57333600  1
  Ba  Ba4  1  0.50000000  0.63778600  0.25000000  1
  Ba  Ba5  1  0.66587550  0.88675450  0.07333600  1
  Ba  Ba6  1  0.83412450  0.61324550  0.92666400  1
  Ba  Ba7  1  0.00000000  0.86221400  0.75000000  1
  Ba  Ba8  1  0.83412450  0.38675450  0.42666400  1
  Ba  Ba9  1  0.16587550  0.61324550  0.57333600  1
  Ba  Ba10  1  0.00000000  0.13778600  0.25000000  1
  Ba  Ba11  1  0.16587550  0.38675450  0.07333600  1
  Y  Y12  1  0.19802250  0.13317950  0.59692300  1
  Y  Y13  1  0.19802250  0.86682050  0.09692300  1
  Y  Y14  1  0.80197750  0.13317950  0.90307700  1
  Y  Y15  1  0.80197750  0.86682050  0.40307700  1
  Y  Y16  1  0.69802250  0.63317950  0.59692300  1
  Y  Y17  1  0.69802250  0.36682050  0.09692300  1
  Y  Y18  1  0.30197750  0.63317950  0.90307700  1
  Y  Y19  1  0.30197750  0.36682050  0.40307700  1
  Br  Br20  1  0.59717800  0.22927300  0.92676100  1
  Br  Br21  1  0.24979750  0.24689950  0.74522900  1
  Br  Br22  1  0.19489250  0.02067850  0.73108300  1
  Br  Br23  1  0.59717800  0.77072700  0.42676100  1
  Br  Br24  1  0.24979750  0.75310050  0.24522900  1
  Br  Br25  1  0.88694400  0.95958800  0.55991000  1
  Br  Br26  1  0.57998400  0.00796500  0.89560700  1
  Br  Br27  1  0.56293450  0.69808350  0.93415800  1
  Br  Br28  1  0.19489250  0.97932150  0.23108300  1
  Br  Br29  1  0.43706550  0.69808350  0.56584200  1
  Br  Br30  1  0.42001600  0.00796500  0.60439300  1
  Br  Br31  1  0.11305600  0.95958800  0.94009000  1
  Br  Br32  1  0.88694400  0.04041200  0.05991000  1
  Br  Br33  1  0.57998400  0.99203500  0.39560700  1
  Br  Br34  1  0.56293450  0.30191650  0.43415800  1
  Br  Br35  1  0.80510750  0.02067850  0.76891700  1
  Br  Br36  1  0.43706550  0.30191650  0.06584200  1
  Br  Br37  1  0.42001600  0.99203500  0.10439300  1
  Br  Br38  1  0.11305600  0.04041200  0.44009000  1
  Br  Br39  1  0.75020250  0.24689950  0.75477100  1
  Br  Br40  1  0.40282200  0.22927300  0.57323900  1
  Br  Br41  1  0.80510750  0.97932150  0.26891700  1
  Br  Br42  1  0.75020250  0.75310050  0.25477100  1
  Br  Br43  1  0.40282200  0.77072700  0.07323900  1
  Br  Br44  1  0.09717800  0.72927300  0.92676100  1
  Br  Br45  1  0.74979750  0.74689950  0.74522900  1
  Br  Br46  1  0.69489250  0.52067850  0.73108300  1
  Br  Br47  1  0.09717800  0.27072700  0.42676100  1
  Br  Br48  1  0.74979750  0.25310050  0.24522900  1
  Br  Br49  1  0.38694400  0.45958800  0.55991000  1
  Br  Br50  1  0.07998400  0.50796500  0.89560700  1
  Br  Br51  1  0.06293450  0.19808350  0.93415800  1
  Br  Br52  1  0.69489250  0.47932150  0.23108300  1
  Br  Br53  1  0.93706550  0.19808350  0.56584200  1
  Br  Br54  1  0.92001600  0.50796500  0.60439300  1
  Br  Br55  1  0.61305600  0.45958800  0.94009000  1
  Br  Br56  1  0.38694400  0.54041200  0.05991000  1
  Br  Br57  1  0.07998400  0.49203500  0.39560700  1
  Br  Br58  1  0.06293450  0.80191650  0.43415800  1
  Br  Br59  1  0.30510750  0.52067850  0.76891700  1
  Br  Br60  1  0.93706550  0.80191650  0.06584200  1
  Br  Br61  1  0.92001600  0.49203500  0.10439300  1
  Br  Br62  1  0.61305600  0.54041200  0.44009000  1
  Br  Br63  1  0.25020250  0.74689950  0.75477100  1
  Br  Br64  1  0.90282200  0.72927300  0.57323900  1
  Br  Br65  1  0.30510750  0.47932150  0.26891700  1
  Br  Br66  1  0.25020250  0.25310050  0.25477100  1
  Br  Br67  1  0.90282200  0.27072700  0.07323900  1
