# generated using pymatgen
data_Li3Bi3P8O29
_symmetry_space_group_name_H-M   'P 1'
_cell_length_a   17.48024800
_cell_length_b   10.11372600
_cell_length_c   14.39504388
_cell_angle_alpha   90.00000000
_cell_angle_beta   90.21974978
_cell_angle_gamma   90.00000000
_symmetry_Int_Tables_number   1
_chemical_formula_structural   Li3Bi3P8O29
_chemical_formula_sum   'Li12 Bi12 P32 O116'
_cell_volume   2544.88740385
_cell_formula_units_Z   4
loop_
 _symmetry_equiv_pos_site_id
 _symmetry_equiv_pos_as_xyz
  1  'x, y, z'
loop_
 _atom_site_type_symbol
 _atom_site_label
 _atom_site_symmetry_multiplicity
 _atom_site_fract_x
 _atom_site_fract_y
 _atom_site_fract_z
 _atom_site_occupancy
  Li  Li0  1  0.50982600  0.45371100  0.50079600  1
  Li  Li1  1  0.50982600  0.54628900  0.00079600  1
  Li  Li2  1  0.61543700  0.29693000  0.94834700  1
  Li  Li3  1  0.61543700  0.70307000  0.44834700  1
  Li  Li4  1  0.84105400  0.06842900  0.44612000  1
  Li  Li5  1  0.84105400  0.93157100  0.94612000  1
  Li  Li6  1  0.00982600  0.95371100  0.50079600  1
  Li  Li7  1  0.00982600  0.04628900  0.00079600  1
  Li  Li8  1  0.11543700  0.79693000  0.94834700  1
  Li  Li9  1  0.11543700  0.20307000  0.44834700  1
  Li  Li10  1  0.34105400  0.56842900  0.44612000  1
  Li  Li11  1  0.34105400  0.43157100  0.94612000  1
  Bi  Bi12  1  0.49925900  0.06353700  0.25179300  1
  Bi  Bi13  1  0.49925900  0.93646300  0.75179300  1
  Bi  Bi14  1  0.21713950  0.78402050  0.74544600  1
  Bi  Bi15  1  0.28289850  0.72113950  0.25008000  1
  Bi  Bi16  1  0.21713950  0.21597950  0.24544600  1
  Bi  Bi17  1  0.28289850  0.27886050  0.75008000  1
  Bi  Bi18  1  0.99925900  0.56353700  0.25179300  1
  Bi  Bi19  1  0.99925900  0.43646300  0.75179300  1
  Bi  Bi20  1  0.71713950  0.28402050  0.74544600  1
  Bi  Bi21  1  0.78289850  0.22113950  0.25008000  1
  Bi  Bi22  1  0.71713950  0.71597950  0.24544600  1
  Bi  Bi23  1  0.78289850  0.77886050  0.75008000  1
  P  P24  1  0.53754350  0.23945150  0.65317000  1
  P  P25  1  0.61079250  0.30585750  0.15553700  1
  P  P26  1  0.53754350  0.76054850  0.15317000  1
  P  P27  1  0.66799450  0.00083450  0.87986000  1
  P  P28  1  0.66799450  0.99916550  0.37986000  1
  P  P29  1  0.61079250  0.69414250  0.65553700  1
  P  P30  1  0.14847350  0.06940250  0.84499100  1
  P  P31  1  0.84644150  0.06922050  0.65272200  1
  P  P32  1  0.14847350  0.93059750  0.34499100  1
  P  P33  1  0.84644150  0.93077950  0.15272200  1
  P  P34  1  0.39000400  0.30852500  0.34054600  1
  P  P35  1  0.33437800  0.00032200  0.12253000  1
  P  P36  1  0.33437800  0.99967800  0.62253000  1
  P  P37  1  0.46117200  0.23960400  0.84562600  1
  P  P38  1  0.39000400  0.69147500  0.84054600  1
  P  P39  1  0.46117200  0.76039600  0.34562600  1
  P  P40  1  0.03754350  0.73945150  0.65317000  1
  P  P41  1  0.11079250  0.80585750  0.15553700  1
  P  P42  1  0.03754350  0.26054850  0.15317000  1
  P  P43  1  0.16799450  0.50083450  0.87986000  1
  P  P44  1  0.16799450  0.49916550  0.37986000  1
  P  P45  1  0.11079250  0.19414250  0.65553700  1
  P  P46  1  0.64847350  0.56940250  0.84499100  1
  P  P47  1  0.34644150  0.56922050  0.65272200  1
  P  P48  1  0.64847350  0.43059750  0.34499100  1
  P  P49  1  0.34644150  0.43077950  0.15272200  1
  P  P50  1  0.89000400  0.80852500  0.34054600  1
  P  P51  1  0.83437800  0.50032200  0.12253000  1
  P  P52  1  0.83437800  0.49967800  0.62253000  1
  P  P53  1  0.96117200  0.73960400  0.84562600  1
  P  P54  1  0.89000400  0.19147500  0.84054600  1
  P  P55  1  0.96117200  0.26039600  0.34562600  1
  O  O56  1  0.49633200  0.28559400  0.74795100  1
  O  O57  1  0.50904100  0.29373700  0.92258600  1
  O  O58  1  0.53789000  0.21827200  0.15981800  1
  O  O59  1  0.11069500  0.90188000  0.24426800  1
  O  O60  1  0.59453050  0.39562350  0.42072400  1
  O  O61  1  0.61921100  0.30236900  0.65376700  1
  O  O62  1  0.54434000  0.08624900  0.65595000  1
  O  O63  1  0.60464850  0.08778950  0.33398300  1
  O  O64  1  0.54434000  0.91375100  0.15595000  1
  O  O65  1  0.50904100  0.70626300  0.42258600  1
  O  O66  1  0.49633200  0.71440600  0.24795100  1
  O  O67  1  0.53789000  0.78172800  0.65981800  1
  O  O68  1  0.65789500  0.14818000  0.84361800  1
  O  O69  1  0.68256100  0.21507200  0.16067100  1
  O  O70  1  0.60464850  0.91221050  0.83398300  1
  O  O71  1  0.66696100  0.00423200  0.98410400  1
  O  O72  1  0.66696100  0.99576800  0.48410400  1
  O  O73  1  0.65789500  0.85182000  0.34361800  1
  O  O74  1  0.76402100  0.12727800  0.65995700  1
  O  O75  1  0.74799250  0.05679350  0.34668800  1
  O  O76  1  0.61921100  0.69763100  0.15376700  1
  O  O77  1  0.11069500  0.09812000  0.74426800  1
  O  O78  1  0.59453050  0.60437650  0.92072400  1
  O  O79  1  0.60649450  0.61285950  0.56865300  1
  O  O80  1  0.68256100  0.78492800  0.66067100  1
  O  O81  1  0.74799250  0.94320650  0.84668800  1
  O  O82  1  0.16046350  0.08458050  0.34674800  1
  O  O83  1  0.76402100  0.87272200  0.15995700  1
  O  O84  1  0.84047300  0.08401100  0.15760800  1
  O  O85  1  0.60649450  0.38714050  0.06865300  1
  O  O86  1  0.89490550  0.09031550  0.91594000  1
  O  O87  1  0.39555850  0.61793850  0.74055300  1
  O  O88  1  0.16046350  0.91541950  0.84674800  1
  O  O89  1  0.22796400  0.13807400  0.84702300  1
  O  O90  1  0.84047300  0.91598900  0.65760800  1
  O  O91  1  0.25475650  0.04947850  0.16125900  1
  O  O92  1  0.31617750  0.22281750  0.33952200  1
  O  O93  1  0.89490550  0.90968450  0.41594000  1
  O  O94  1  0.88727350  0.89540050  0.06513900  1
  O  O95  1  0.39555850  0.38206150  0.24055300  1
  O  O96  1  0.37958250  0.30274650  0.84977000  1
  O  O97  1  0.25475650  0.95052150  0.66125900  1
  O  O98  1  0.22796400  0.86192600  0.34702300  1
  O  O99  1  0.34747750  0.14400050  0.66183400  1
  O  O100  1  0.33508250  0.00063050  0.01862100  1
  O  O101  1  0.33508250  0.99936950  0.51862100  1
  O  O102  1  0.39809700  0.09281000  0.16470000  1
  O  O103  1  0.31617750  0.77718250  0.83952200  1
  O  O104  1  0.34747750  0.85599950  0.16183400  1
  O  O105  1  0.46134900  0.21715200  0.34647500  1
  O  O106  1  0.49482150  0.29740350  0.57341000  1
  O  O107  1  0.45102450  0.08685350  0.84379100  1
  O  O108  1  0.39809700  0.90719000  0.66470000  1
  O  O109  1  0.45102450  0.91314650  0.34379100  1
  O  O110  1  0.37958250  0.69725350  0.34977000  1
  O  O111  1  0.88727350  0.10459950  0.56513900  1
  O  O112  1  0.46134900  0.78284800  0.84647500  1
  O  O113  1  0.49482150  0.70259650  0.07341000  1
  O  O114  1  0.99633200  0.78559400  0.74795100  1
  O  O115  1  0.00904100  0.79373700  0.92258600  1
  O  O116  1  0.03789000  0.71827200  0.15981800  1
  O  O117  1  0.61069500  0.40188000  0.24426800  1
  O  O118  1  0.09453050  0.89562350  0.42072400  1
  O  O119  1  0.11921100  0.80236900  0.65376700  1
  O  O120  1  0.04434000  0.58624900  0.65595000  1
  O  O121  1  0.10464850  0.58778950  0.33398300  1
  O  O122  1  0.04434000  0.41375100  0.15595000  1
  O  O123  1  0.00904100  0.20626300  0.42258600  1
  O  O124  1  0.99633200  0.21440600  0.24795100  1
  O  O125  1  0.03789000  0.28172800  0.65981800  1
  O  O126  1  0.15789500  0.64818000  0.84361800  1
  O  O127  1  0.18256100  0.71507200  0.16067100  1
  O  O128  1  0.10464850  0.41221050  0.83398300  1
  O  O129  1  0.16696100  0.50423200  0.98410400  1
  O  O130  1  0.16696100  0.49576800  0.48410400  1
  O  O131  1  0.15789500  0.35182000  0.34361800  1
  O  O132  1  0.26402100  0.62727800  0.65995700  1
  O  O133  1  0.24799250  0.55679350  0.34668800  1
  O  O134  1  0.11921100  0.19763100  0.15376700  1
  O  O135  1  0.61069500  0.59812000  0.74426800  1
  O  O136  1  0.09453050  0.10437650  0.92072400  1
  O  O137  1  0.10649450  0.11285950  0.56865300  1
  O  O138  1  0.18256100  0.28492800  0.66067100  1
  O  O139  1  0.24799250  0.44320650  0.84668800  1
  O  O140  1  0.66046350  0.58458050  0.34674800  1
  O  O141  1  0.26402100  0.37272200  0.15995700  1
  O  O142  1  0.34047300  0.58401100  0.15760800  1
  O  O143  1  0.10649450  0.88714050  0.06865300  1
  O  O144  1  0.39490550  0.59031550  0.91594000  1
  O  O145  1  0.89555850  0.11793850  0.74055300  1
  O  O146  1  0.66046350  0.41541950  0.84674800  1
  O  O147  1  0.72796400  0.63807400  0.84702300  1
  O  O148  1  0.34047300  0.41598900  0.65760800  1
  O  O149  1  0.75475650  0.54947850  0.16125900  1
  O  O150  1  0.81617750  0.72281750  0.33952200  1
  O  O151  1  0.39490550  0.40968450  0.41594000  1
  O  O152  1  0.38727350  0.39540050  0.06513900  1
  O  O153  1  0.89555850  0.88206150  0.24055300  1
  O  O154  1  0.87958250  0.80274650  0.84977000  1
  O  O155  1  0.75475650  0.45052150  0.66125900  1
  O  O156  1  0.72796400  0.36192600  0.34702300  1
  O  O157  1  0.84747750  0.64400050  0.66183400  1
  O  O158  1  0.83508250  0.50063050  0.01862100  1
  O  O159  1  0.83508250  0.49936950  0.51862100  1
  O  O160  1  0.89809700  0.59281000  0.16470000  1
  O  O161  1  0.81617750  0.27718250  0.83952200  1
  O  O162  1  0.84747750  0.35599950  0.16183400  1
  O  O163  1  0.96134900  0.71715200  0.34647500  1
  O  O164  1  0.99482150  0.79740350  0.57341000  1
  O  O165  1  0.95102450  0.58685350  0.84379100  1
  O  O166  1  0.89809700  0.40719000  0.66470000  1
  O  O167  1  0.95102450  0.41314650  0.34379100  1
  O  O168  1  0.87958250  0.19725350  0.34977000  1
  O  O169  1  0.38727350  0.60459950  0.56513900  1
  O  O170  1  0.96134900  0.28284800  0.84647500  1
  O  O171  1  0.99482150  0.20259650  0.07341000  1
