# generated using pymatgen
data_Li4Ti3Mn3Nb2O16
_symmetry_space_group_name_H-M   'P 1'
_cell_length_a   10.68635200
_cell_length_b   6.05280400
_cell_length_c   9.92688083
_cell_angle_alpha   90.00000000
_cell_angle_beta   91.08742837
_cell_angle_gamma   90.00000000
_symmetry_Int_Tables_number   1
_chemical_formula_structural   Li4Ti3Mn3Nb2O16
_chemical_formula_sum   'Li8 Ti6 Mn6 Nb4 O32'
_cell_volume   641.97877721
_cell_formula_units_Z   2
loop_
 _symmetry_equiv_pos_site_id
 _symmetry_equiv_pos_as_xyz
  1  'x, y, z'
loop_
 _atom_site_type_symbol
 _atom_site_label
 _atom_site_symmetry_multiplicity
 _atom_site_fract_x
 _atom_site_fract_y
 _atom_site_fract_z
 _atom_site_occupancy
  Li  Li0  1  0.66145900  0.00000000  0.90605400  1
  Li  Li1  1  0.50254000  0.50000000  0.98643000  1
  Li  Li2  1  0.50742700  0.50000000  0.49267400  1
  Li  Li3  1  0.82726000  0.50000000  0.40758100  1
  Li  Li4  1  0.16145900  0.50000000  0.90605400  1
  Li  Li5  1  0.00254000  0.00000000  0.98643000  1
  Li  Li6  1  0.00742700  0.00000000  0.49267400  1
  Li  Li7  1  0.32726000  0.00000000  0.40758100  1
  Ti  Ti8  1  0.67801300  0.50000000  0.73574800  1
  Ti  Ti9  1  0.59400450  0.24899950  0.21969000  1
  Ti  Ti10  1  0.59400450  0.75100050  0.21969000  1
  Ti  Ti11  1  0.17801300  0.00000000  0.73574800  1
  Ti  Ti12  1  0.09400450  0.74899950  0.21969000  1
  Ti  Ti13  1  0.09400450  0.25100050  0.21969000  1
  Mn  Mn14  1  0.83306200  0.00000000  0.21027100  1
  Mn  Mn15  1  0.91540200  0.74707300  0.70562300  1
  Mn  Mn16  1  0.91540200  0.25292700  0.70562300  1
  Mn  Mn17  1  0.33306200  0.50000000  0.21027100  1
  Mn  Mn18  1  0.41540200  0.24707300  0.70562300  1
  Mn  Mn19  1  0.41540200  0.75292700  0.70562300  1
  Nb  Nb20  1  0.66566900  0.00000000  0.49747500  1
  Nb  Nb21  1  0.85013600  0.50000000  0.98890100  1
  Nb  Nb22  1  0.16566900  0.50000000  0.49747500  1
  Nb  Nb23  1  0.35013600  0.00000000  0.98890100  1
  O  O24  1  0.59122650  0.24471650  0.58824700  1
  O  O25  1  0.52022600  0.00000000  0.33345600  1
  O  O26  1  0.64999100  0.00000000  0.10900100  1
  O  O27  1  0.51042300  0.50000000  0.30512500  1
  O  O28  1  0.51172900  0.50000000  0.79949500  1
  O  O29  1  0.59122650  0.75528350  0.58824700  1
  O  O30  1  0.72911450  0.23108050  0.33838900  1
  O  O31  1  0.72911450  0.76891950  0.33838900  1
  O  O32  1  0.66310000  0.50000000  0.10589400  1
  O  O33  1  0.83164800  0.00000000  0.57161200  1
  O  O34  1  0.74812850  0.71580750  0.85189700  1
  O  O35  1  0.74812850  0.28419250  0.85189700  1
  O  O36  1  0.81227400  0.50000000  0.60896200  1
  O  O37  1  0.92100300  0.74467500  0.09188600  1
  O  O38  1  0.97715200  0.50000000  0.85763200  1
  O  O39  1  0.92100300  0.25532500  0.09188600  1
  O  O40  1  0.09122650  0.74471650  0.58824700  1
  O  O41  1  0.02022600  0.50000000  0.33345600  1
  O  O42  1  0.14999100  0.50000000  0.10900100  1
  O  O43  1  0.01042300  0.00000000  0.30512500  1
  O  O44  1  0.01172900  0.00000000  0.79949500  1
  O  O45  1  0.09122650  0.25528350  0.58824700  1
  O  O46  1  0.22911450  0.73108050  0.33838900  1
  O  O47  1  0.22911450  0.26891950  0.33838900  1
  O  O48  1  0.16310000  0.00000000  0.10589400  1
  O  O49  1  0.33164800  0.50000000  0.57161200  1
  O  O50  1  0.24812850  0.21580750  0.85189700  1
  O  O51  1  0.24812850  0.78419250  0.85189700  1
  O  O52  1  0.31227400  0.00000000  0.60896200  1
  O  O53  1  0.42100300  0.24467500  0.09188600  1
  O  O54  1  0.47715200  0.00000000  0.85763200  1
  O  O55  1  0.42100300  0.75532500  0.09188600  1
