# generated using pymatgen
data_Li4V5O9F
_symmetry_space_group_name_H-M   'P 1'
_cell_length_a   10.00906200
_cell_length_b   3.01087400
_cell_length_c   13.12776611
_cell_angle_alpha   90.00000000
_cell_angle_beta   101.39601817
_cell_angle_gamma   90.00000000
_symmetry_Int_Tables_number   1
_chemical_formula_structural   Li4V5O9F
_chemical_formula_sum   'Li8 V10 O18 F2'
_cell_volume   387.81902314
_cell_formula_units_Z   2
loop_
 _symmetry_equiv_pos_site_id
 _symmetry_equiv_pos_as_xyz
  1  'x, y, z'
loop_
 _atom_site_type_symbol
 _atom_site_label
 _atom_site_symmetry_multiplicity
 _atom_site_fract_x
 _atom_site_fract_y
 _atom_site_fract_z
 _atom_site_occupancy
  Li  Li0  1  0.79855000  0.00000000  0.60145100  1
  Li  Li1  1  0.60378500  0.00000000  0.20019000  1
  Li  Li2  1  0.70006500  0.50000000  0.40295900  1
  Li  Li3  1  0.89654300  0.50000000  0.80586700  1
  Li  Li4  1  0.29855000  0.50000000  0.60145100  1
  Li  Li5  1  0.10378500  0.50000000  0.20019000  1
  Li  Li6  1  0.20006500  0.00000000  0.40295900  1
  Li  Li7  1  0.39654300  0.00000000  0.80586700  1
  V  V8  1  0.90117400  0.00000000  0.30135700  1
  V  V9  1  0.68603000  0.00000000  0.89498700  1
  V  V10  1  0.82156000  0.50000000  0.10179000  1
  V  V11  1  0.99796300  0.50000000  0.49926000  1
  V  V12  1  0.59534000  0.50000000  0.69600400  1
  V  V13  1  0.40117400  0.50000000  0.30135700  1
  V  V14  1  0.18603000  0.50000000  0.89498700  1
  V  V15  1  0.32156000  0.00000000  0.10179000  1
  V  V16  1  0.49796300  0.00000000  0.49926000  1
  V  V17  1  0.09534000  0.00000000  0.69600400  1
  O  O18  1  0.85801300  0.00000000  0.44728100  1
  O  O19  1  0.94732000  0.00000000  0.15587600  1
  O  O20  1  0.53991500  0.00000000  0.35138800  1
  O  O21  1  0.73339600  0.00000000  0.74871100  1
  O  O22  1  0.95564600  0.50000000  0.64440700  1
  O  O23  1  0.76397300  0.50000000  0.24465800  1
  O  O24  1  0.81089400  0.50000000  0.95060500  1
  O  O25  1  0.55120900  0.50000000  0.83989100  1
  O  O26  1  0.63740700  0.50000000  0.54866000  1
  O  O27  1  0.35801300  0.50000000  0.44728100  1
  O  O28  1  0.44732000  0.50000000  0.15587600  1
  O  O29  1  0.03991500  0.50000000  0.35138800  1
  O  O30  1  0.23339600  0.50000000  0.74871100  1
  O  O31  1  0.45564600  0.00000000  0.64440700  1
  O  O32  1  0.26397300  0.00000000  0.24465800  1
  O  O33  1  0.31089400  0.00000000  0.95060500  1
  O  O34  1  0.05120900  0.00000000  0.83989100  1
  O  O35  1  0.13740700  0.00000000  0.54866000  1
  F  F36  1  0.66749300  0.00000000  0.05917600  1
  F  F37  1  0.16749300  0.50000000  0.05917600  1
