# generated using pymatgen
data_Na2CuH4(SO5)2
_symmetry_space_group_name_H-M   'P 1'
_cell_length_a   5.64092000
_cell_length_b   12.83261700
_cell_length_c   5.88073807
_cell_angle_alpha   90.00000000
_cell_angle_beta   109.72116525
_cell_angle_gamma   90.00000000
_symmetry_Int_Tables_number   1
_chemical_formula_structural   Na2CuH4(SO5)2
_chemical_formula_sum   'Na4 Cu2 H8 S4 O20'
_cell_volume   400.72484589
_cell_formula_units_Z   2
loop_
 _symmetry_equiv_pos_site_id
 _symmetry_equiv_pos_as_xyz
  1  'x, y, z'
loop_
 _atom_site_type_symbol
 _atom_site_label
 _atom_site_symmetry_multiplicity
 _atom_site_fract_x
 _atom_site_fract_y
 _atom_site_fract_z
 _atom_site_occupancy
  Na  Na0  1  0.71164500  0.62354000  0.56919200  1
  Na  Na1  1  0.78835500  0.12354000  0.43080800  1
  Na  Na2  1  0.28835500  0.37646000  0.43080800  1
  Na  Na3  1  0.21164500  0.87646000  0.56919200  1
  Cu  Cu4  1  0.50000000  0.50000000  0.00000000  1
  Cu  Cu5  1  0.00000000  0.00000000  0.00000000  1
  H  H6  1  0.48447700  0.69898700  0.92846600  1
  H  H7  1  0.01552300  0.19898700  0.07153400  1
  H  H8  1  0.51552300  0.30101300  0.07153400  1
  H  H9  1  0.98447700  0.80101300  0.92846600  1
  H  H10  1  0.28369300  0.64462500  0.70239300  1
  H  H11  1  0.21630700  0.14462500  0.29760700  1
  H  H12  1  0.71630700  0.35537500  0.29760700  1
  H  H13  1  0.78369300  0.85537500  0.70239300  1
  S  S14  1  0.04504000  0.61926000  0.23964200  1
  S  S15  1  0.45496000  0.11926000  0.76035800  1
  S  S16  1  0.95496000  0.38074000  0.76035800  1
  S  S17  1  0.54504000  0.88074000  0.23964200  1
  O  O18  1  0.98557300  0.67559700  0.00872300  1
  O  O19  1  0.51442700  0.17559700  0.99127700  1
  O  O20  1  0.01442700  0.32440300  0.99127700  1
  O  O21  1  0.48557300  0.82440300  0.00872300  1
  O  O22  1  0.28140700  0.55830100  0.29331300  1
  O  O23  1  0.21859300  0.05830100  0.70668700  1
  O  O24  1  0.71859300  0.44169900  0.70668700  1
  O  O25  1  0.78140700  0.94169900  0.29331300  1
  O  O26  1  0.83233500  0.54468500  0.23197500  1
  O  O27  1  0.66766500  0.04468500  0.76802500  1
  O  O28  1  0.16766500  0.45531500  0.76802500  1
  O  O29  1  0.33233500  0.95531500  0.23197500  1
  O  O30  1  0.06593900  0.69154600  0.44574900  1
  O  O31  1  0.43406100  0.19154600  0.55425100  1
  O  O32  1  0.93406100  0.30845400  0.55425100  1
  O  O33  1  0.56593900  0.80845400  0.44574900  1
  O  O34  1  0.45310500  0.63402200  0.82817400  1
  O  O35  1  0.04689500  0.13402200  0.17182600  1
  O  O36  1  0.54689500  0.36597800  0.17182600  1
  O  O37  1  0.95310500  0.86597800  0.82817400  1
