# generated using pymatgen
data_Sr(IO3)2
_symmetry_space_group_name_H-M   'P 1'
_cell_length_a   6.19671100
_cell_length_b   5.44760800
_cell_length_c   10.60791350
_cell_angle_alpha   90.00000000
_cell_angle_beta   90.56266056
_cell_angle_gamma   90.00000000
_symmetry_Int_Tables_number   1
_chemical_formula_structural   Sr(IO3)2
_chemical_formula_sum   'Sr2 I4 O12'
_cell_volume   358.07674681
_cell_formula_units_Z   2
loop_
 _symmetry_equiv_pos_site_id
 _symmetry_equiv_pos_as_xyz
  1  'x, y, z'
loop_
 _atom_site_type_symbol
 _atom_site_label
 _atom_site_symmetry_multiplicity
 _atom_site_fract_x
 _atom_site_fract_y
 _atom_site_fract_z
 _atom_site_occupancy
  Sr  Sr0  1  0.77559600  0.90327300  0.25790400  1
  Sr  Sr1  1  0.22440400  0.40327300  0.74209600  1
  I  I2  1  0.72476600  0.00553100  0.60468200  1
  I  I3  1  0.72992100  0.51360400  0.92727000  1
  I  I4  1  0.27007900  0.01360400  0.07273000  1
  I  I5  1  0.27523400  0.50553100  0.39531800  1
  O  O6  1  0.98499700  0.66179200  0.88562400  1
  O  O7  1  0.86732700  0.18821600  0.72401500  1
  O  O8  1  0.85268200  0.11646800  0.46104100  1
  O  O9  1  0.64639900  0.69397900  0.06398900  1
  O  O10  1  0.53605600  0.66140000  0.40434400  1
  O  O11  1  0.44810600  0.14648500  0.19334700  1
  O  O12  1  0.55189400  0.64648500  0.80665300  1
  O  O13  1  0.46394400  0.16140000  0.59565600  1
  O  O14  1  0.35360100  0.19397900  0.93601100  1
  O  O15  1  0.14731800  0.61646800  0.53895900  1
  O  O16  1  0.13267300  0.68821600  0.27598500  1
  O  O17  1  0.01500300  0.16179200  0.11437600  1
