# generated using pymatgen
data_Li4Cr5Sn3O16
_symmetry_space_group_name_H-M   'P 1'
_cell_length_a   10.52206400
_cell_length_b   6.09384400
_cell_length_c   9.60344135
_cell_angle_alpha   90.00000000
_cell_angle_beta   90.38192134
_cell_angle_gamma   90.00000000
_symmetry_Int_Tables_number   1
_chemical_formula_structural   Li4Cr5Sn3O16
_chemical_formula_sum   'Li8 Cr10 Sn6 O32'
_cell_volume   615.75721788
_cell_formula_units_Z   2
loop_
 _symmetry_equiv_pos_site_id
 _symmetry_equiv_pos_as_xyz
  1  'x, y, z'
loop_
 _atom_site_type_symbol
 _atom_site_label
 _atom_site_symmetry_multiplicity
 _atom_site_fract_x
 _atom_site_fract_y
 _atom_site_fract_z
 _atom_site_occupancy
  Li  Li0  1  0.32953000  0.00000000  0.88796200  1
  Li  Li1  1  0.01311300  0.00000000  0.99199600  1
  Li  Li2  1  0.00631400  0.00000000  0.50167300  1
  Li  Li3  1  0.66537700  0.00000000  0.39629000  1
  Li  Li4  1  0.82953000  0.50000000  0.88796200  1
  Li  Li5  1  0.51311300  0.50000000  0.99199600  1
  Li  Li6  1  0.50631400  0.50000000  0.50167300  1
  Li  Li7  1  0.16537700  0.50000000  0.39629000  1
  Cr  Cr8  1  0.33068000  0.00000000  0.48907400  1
  Cr  Cr9  1  0.16956800  0.00000000  0.21495500  1
  Cr  Cr10  1  0.66153500  0.00000000  0.98281500  1
  Cr  Cr11  1  0.58452100  0.75431900  0.71107300  1
  Cr  Cr12  1  0.58452100  0.24568100  0.71107300  1
  Cr  Cr13  1  0.83068000  0.50000000  0.48907400  1
  Cr  Cr14  1  0.66956800  0.50000000  0.21495500  1
  Cr  Cr15  1  0.16153500  0.50000000  0.98281500  1
  Cr  Cr16  1  0.08452100  0.25431900  0.71107300  1
  Cr  Cr17  1  0.08452100  0.74568100  0.71107300  1
  Sn  Sn18  1  0.41496600  0.75343000  0.21318800  1
  Sn  Sn19  1  0.41496600  0.24657000  0.21318800  1
  Sn  Sn20  1  0.82990900  0.00000000  0.71383100  1
  Sn  Sn21  1  0.91496600  0.25343000  0.21318800  1
  Sn  Sn22  1  0.91496600  0.74657000  0.21318800  1
  Sn  Sn23  1  0.32990900  0.50000000  0.71383100  1
  O  O24  1  0.42147800  0.74925500  0.59850300  1
  O  O25  1  0.47947600  0.00000000  0.35002000  1
  O  O26  1  0.32819300  0.00000000  0.09754500  1
  O  O27  1  0.00477500  0.00000000  0.31679500  1
  O  O28  1  0.00539200  0.00000000  0.80797600  1
  O  O29  1  0.42147800  0.25074500  0.59850300  1
  O  O30  1  0.25687150  0.78187950  0.34499500  1
  O  O31  1  0.25687150  0.21812050  0.34499500  1
  O  O32  1  0.83646200  0.00000000  0.09306700  1
  O  O33  1  0.16640400  0.00000000  0.60895200  1
  O  O34  1  0.73406100  0.77720900  0.84305400  1
  O  O35  1  0.73406100  0.22279100  0.84305400  1
  O  O36  1  0.66158100  0.00000000  0.60173100  1
  O  O37  1  0.58266050  0.74522850  0.09911700  1
  O  O38  1  0.52136100  0.00000000  0.83324100  1
  O  O39  1  0.58266050  0.25477150  0.09911700  1
  O  O40  1  0.92147800  0.24925500  0.59850300  1
  O  O41  1  0.97947600  0.50000000  0.35002000  1
  O  O42  1  0.82819300  0.50000000  0.09754500  1
  O  O43  1  0.50477500  0.50000000  0.31679500  1
  O  O44  1  0.50539200  0.50000000  0.80797600  1
  O  O45  1  0.92147800  0.75074500  0.59850300  1
  O  O46  1  0.75687150  0.28187950  0.34499500  1
  O  O47  1  0.75687150  0.71812050  0.34499500  1
  O  O48  1  0.33646200  0.50000000  0.09306700  1
  O  O49  1  0.66640400  0.50000000  0.60895200  1
  O  O50  1  0.23406100  0.27720900  0.84305400  1
  O  O51  1  0.23406100  0.72279100  0.84305400  1
  O  O52  1  0.16158100  0.50000000  0.60173100  1
  O  O53  1  0.08266050  0.24522850  0.09911700  1
  O  O54  1  0.02136100  0.50000000  0.83324100  1
  O  O55  1  0.08266050  0.75477150  0.09911700  1
