# generated using pymatgen
data_NaGePCO7
_symmetry_space_group_name_H-M   'P 1'
_cell_length_a   5.13051700
_cell_length_b   6.32079200
_cell_length_c   8.98422612
_cell_angle_alpha   90.00000000
_cell_angle_beta   92.67750133
_cell_angle_gamma   90.00000000
_symmetry_Int_Tables_number   1
_chemical_formula_structural   NaGePCO7
_chemical_formula_sum   'Na2 Ge2 P2 C2 O14'
_cell_volume   291.03078038
_cell_formula_units_Z   2
loop_
 _symmetry_equiv_pos_site_id
 _symmetry_equiv_pos_as_xyz
  1  'x, y, z'
loop_
 _atom_site_type_symbol
 _atom_site_label
 _atom_site_symmetry_multiplicity
 _atom_site_fract_x
 _atom_site_fract_y
 _atom_site_fract_z
 _atom_site_occupancy
  Na  Na0  1  0.76239200  0.47746000  0.22497400  1
  Na  Na1  1  0.23760800  0.97746000  0.77502600  1
  Ge  Ge2  1  0.21658500  0.76466600  0.33904400  1
  Ge  Ge3  1  0.78341500  0.26466600  0.66095600  1
  P  P4  1  0.27294300  0.25518400  0.43524600  1
  P  P5  1  0.72705700  0.75518400  0.56475400  1
  C  C6  1  0.27569000  0.74373900  0.07993700  1
  C  C7  1  0.72431000  0.24373900  0.92006300  1
  O  O8  1  0.69001600  0.24058100  0.05436400  1
  O  O9  1  0.04505400  0.74891100  0.14425200  1
  O  O10  1  0.46817800  0.74460100  0.18871600  1
  O  O11  1  0.21285700  0.06291000  0.33438700  1
  O  O12  1  0.20243600  0.44977100  0.33880300  1
  O  O13  1  0.88175200  0.74686500  0.42068400  1
  O  O14  1  0.57217100  0.26316000  0.48150400  1
  O  O15  1  0.42782900  0.76316000  0.51849600  1
  O  O16  1  0.11824800  0.24686500  0.57931600  1
  O  O17  1  0.79756400  0.94977100  0.66119700  1
  O  O18  1  0.78714300  0.56291000  0.66561300  1
  O  O19  1  0.53182200  0.24460100  0.81128400  1
  O  O20  1  0.95494600  0.24891100  0.85574800  1
  O  O21  1  0.30998400  0.74058100  0.94563600  1
