# generated using pymatgen
data_LiNdO2
_symmetry_space_group_name_H-M   'P 1'
_cell_length_a   6.58129066
_cell_length_b   6.21057900
_cell_length_c   6.78514111
_cell_angle_alpha   90.00000000
_cell_angle_beta   120.64817965
_cell_angle_gamma   90.00000000
_symmetry_Int_Tables_number   1
_chemical_formula_structural   LiNdO2
_chemical_formula_sum   'Li4 Nd4 O8'
_cell_volume   238.59364498
_cell_formula_units_Z   4
loop_
 _symmetry_equiv_pos_site_id
 _symmetry_equiv_pos_as_xyz
  1  'x, y, z'
loop_
 _atom_site_type_symbol
 _atom_site_label
 _atom_site_symmetry_multiplicity
 _atom_site_fract_x
 _atom_site_fract_y
 _atom_site_fract_z
 _atom_site_occupancy
  Li  Li0  1  0.68791300  0.16393900  0.27903600  1
  Li  Li1  1  0.31208700  0.66393900  0.22096400  1
  Li  Li2  1  0.68791300  0.33606100  0.77903600  1
  Li  Li3  1  0.31208700  0.83606100  0.72096400  1
  Nd  Nd4  1  0.77679800  0.86553700  0.74101800  1
  Nd  Nd5  1  0.77679800  0.63446300  0.24101800  1
  Nd  Nd6  1  0.22320200  0.36553700  0.75898200  1
  Nd  Nd7  1  0.22320200  0.13446300  0.25898200  1
  O  O8  1  0.97228300  0.19214900  0.85335300  1
  O  O9  1  0.97228300  0.30785100  0.35335300  1
  O  O10  1  0.55302900  0.89544600  0.31652800  1
  O  O11  1  0.44697100  0.39544600  0.18347200  1
  O  O12  1  0.55302900  0.60455400  0.81652800  1
  O  O13  1  0.44697100  0.10455400  0.68347200  1
  O  O14  1  0.02771700  0.69214900  0.64664700  1
  O  O15  1  0.02771700  0.80785100  0.14664700  1
