# generated using pymatgen
data_K2Co3P4(HO4)4
_symmetry_space_group_name_H-M   'P 1'
_cell_length_a   9.21384800
_cell_length_b   8.17749000
_cell_length_c   9.30804578
_cell_angle_alpha   90.00000000
_cell_angle_beta   99.26845362
_cell_angle_gamma   90.00000000
_symmetry_Int_Tables_number   1
_chemical_formula_structural   K2Co3P4(HO4)4
_chemical_formula_sum   'K4 Co6 P8 H8 O32'
_cell_volume   692.16928954
_cell_formula_units_Z   2
loop_
 _symmetry_equiv_pos_site_id
 _symmetry_equiv_pos_as_xyz
  1  'x, y, z'
loop_
 _atom_site_type_symbol
 _atom_site_label
 _atom_site_symmetry_multiplicity
 _atom_site_fract_x
 _atom_site_fract_y
 _atom_site_fract_z
 _atom_site_occupancy
  K  K0  1  0.92558900  0.72544800  0.02234200  1
  K  K1  1  0.07441100  0.22544800  0.47765800  1
  K  K2  1  0.07441100  0.27455200  0.97765800  1
  K  K3  1  0.92558900  0.77455200  0.52234200  1
  Co  Co4  1  0.50000000  0.50000000  0.00000000  1
  Co  Co5  1  0.50000000  0.00000000  0.50000000  1
  Co  Co6  1  0.36719800  0.64275100  0.50466500  1
  Co  Co7  1  0.63280200  0.14275100  0.99533500  1
  Co  Co8  1  0.63280200  0.35724900  0.49533500  1
  Co  Co9  1  0.36719800  0.85724900  0.00466500  1
  P  P10  1  0.60165400  0.69825200  0.29082500  1
  P  P11  1  0.39834600  0.19825200  0.20917500  1
  P  P12  1  0.39834600  0.30174800  0.70917500  1
  P  P13  1  0.60165400  0.80174800  0.79082500  1
  P  P14  1  0.19767500  0.56882100  0.76516800  1
  P  P15  1  0.80232500  0.06882100  0.73483200  1
  P  P16  1  0.80232500  0.43117900  0.23483200  1
  P  P17  1  0.19767500  0.93117900  0.26516800  1
  H  H18  1  0.72057100  0.52679700  0.73477400  1
  H  H19  1  0.27942900  0.02679700  0.76522600  1
  H  H20  1  0.27942900  0.47320300  0.26522600  1
  H  H21  1  0.72057100  0.97320300  0.23477400  1
  H  H22  1  0.87918300  0.48920400  0.70069400  1
  H  H23  1  0.12081700  0.98920400  0.79930600  1
  H  H24  1  0.12081700  0.51079600  0.29930600  1
  H  H25  1  0.87918300  0.01079600  0.20069400  1
  O  O26  1  0.31953700  0.62656300  0.88878500  1
  O  O27  1  0.68046300  0.12656300  0.61121500  1
  O  O28  1  0.68046300  0.37343700  0.11121500  1
  O  O29  1  0.31953700  0.87343700  0.38878500  1
  O  O30  1  0.63785500  0.63522800  0.86221500  1
  O  O31  1  0.36214500  0.13522800  0.63778500  1
  O  O32  1  0.36214500  0.36477200  0.13778500  1
  O  O33  1  0.63785500  0.86477200  0.36221500  1
  O  O34  1  0.53873400  0.57555200  0.38901100  1
  O  O35  1  0.46126600  0.07555200  0.11098900  1
  O  O36  1  0.46126600  0.42444800  0.61098900  1
  O  O37  1  0.53873400  0.92444800  0.88901100  1
  O  O38  1  0.51016700  0.70448100  0.13705100  1
  O  O39  1  0.48983300  0.20448100  0.36294900  1
  O  O40  1  0.48983300  0.29551900  0.86294900  1
  O  O41  1  0.51016700  0.79551900  0.63705100  1
  O  O42  1  0.76156600  0.62516100  0.26596300  1
  O  O43  1  0.23843400  0.12516100  0.23403700  1
  O  O44  1  0.23843400  0.37483900  0.73403700  1
  O  O45  1  0.76156600  0.87483900  0.76596300  1
  O  O46  1  0.04647200  0.55756800  0.80907200  1
  O  O47  1  0.95352800  0.05756800  0.69092800  1
  O  O48  1  0.95352800  0.44243200  0.19092800  1
  O  O49  1  0.04647200  0.94243200  0.30907200  1
  O  O50  1  0.22560100  0.50490500  0.34573100  1
  O  O51  1  0.77439900  0.00490500  0.15426900  1
  O  O52  1  0.77439900  0.49509500  0.65426900  1
  O  O53  1  0.22560100  0.99509500  0.84573100  1
  O  O54  1  0.19738000  0.65879800  0.62090600  1
  O  O55  1  0.80262000  0.15879800  0.87909400  1
  O  O56  1  0.80262000  0.34120200  0.37909400  1
  O  O57  1  0.19738000  0.84120200  0.12090600  1
