# generated using pymatgen
data_Al2O3
_symmetry_space_group_name_H-M   'P 1'
_cell_length_a   3.03472819
_cell_length_b   3.03472819
_cell_length_c   17.50416769
_cell_angle_alpha   90.00000000
_cell_angle_beta   90.00000000
_cell_angle_gamma   120.00000000
_symmetry_Int_Tables_number   1
_chemical_formula_structural   Al2O3
_chemical_formula_sum   'Al6 O9'
_cell_volume   139.60844671
_cell_formula_units_Z   3
loop_
 _symmetry_equiv_pos_site_id
 _symmetry_equiv_pos_as_xyz
  1  'x, y, z'
loop_
 _atom_site_type_symbol
 _atom_site_label
 _atom_site_symmetry_multiplicity
 _atom_site_fract_x
 _atom_site_fract_y
 _atom_site_fract_z
 _atom_site_occupancy
  Al  Al0  1  0.66666667  0.33333333  0.14044433  1
  Al  Al1  1  0.00000000  0.00000000  0.30681600  1
  Al  Al2  1  0.33333333  0.66666667  0.47377767  1
  Al  Al3  1  0.66666667  0.33333333  0.64014933  1
  Al  Al4  1  0.00000000  0.00000000  0.80711100  1
  Al  Al5  1  0.33333333  0.66666667  0.97348267  1
  O  O6  1  0.66666667  0.33333333  0.30500333  1
  O  O7  1  0.33333333  0.66666667  0.08454967  1
  O  O8  1  0.00000000  0.00000000  0.19352000  1
  O  O9  1  0.33333333  0.66666667  0.63833667  1
  O  O10  1  0.00000000  0.00000000  0.41788300  1
  O  O11  1  0.66666667  0.33333333  0.52685333  1
  O  O12  1  0.00000000  0.00000000  0.97167000  1
  O  O13  1  0.66666667  0.33333333  0.75121633  1
  O  O14  1  0.33333333  0.66666667  0.86018667  1
