# generated using pymatgen
data_LiSiBiO4
_symmetry_space_group_name_H-M   'P 1'
_cell_length_a   13.59512591
_cell_length_b   13.59512591
_cell_length_c   11.08401618
_cell_angle_alpha   90.00000000
_cell_angle_beta   90.00000000
_cell_angle_gamma   120.00000000
_symmetry_Int_Tables_number   1
_chemical_formula_structural   LiSiBiO4
_chemical_formula_sum   'Li18 Si18 Bi18 O72'
_cell_volume   1774.16599639
_cell_formula_units_Z   18
loop_
 _symmetry_equiv_pos_site_id
 _symmetry_equiv_pos_as_xyz
  1  'x, y, z'
loop_
 _atom_site_type_symbol
 _atom_site_label
 _atom_site_symmetry_multiplicity
 _atom_site_fract_x
 _atom_site_fract_y
 _atom_site_fract_z
 _atom_site_occupancy
  Li  Li0  1  0.81400767  0.78162733  0.22177433  1
  Li  Li1  1  0.78162733  0.96761967  0.77822567  1
  Li  Li2  1  0.03238033  0.81400767  0.77822567  1
  Li  Li3  1  0.96761967  0.18599233  0.22177433  1
  Li  Li4  1  0.21837267  0.03238033  0.22177433  1
  Li  Li5  1  0.18599233  0.21837267  0.77822567  1
  Li  Li6  1  0.48067433  0.11496067  0.55510767  1
  Li  Li7  1  0.44829400  0.30095300  0.11155900  1
  Li  Li8  1  0.69904700  0.14734100  0.11155900  1
  Li  Li9  1  0.63428633  0.51932567  0.55510767  1
  Li  Li10  1  0.88503933  0.36571367  0.55510767  1
  Li  Li11  1  0.85265900  0.55170600  0.11155900  1
  Li  Li12  1  0.14734100  0.44829400  0.88844100  1
  Li  Li13  1  0.11496067  0.63428633  0.44489233  1
  Li  Li14  1  0.36571367  0.48067433  0.44489233  1
  Li  Li15  1  0.30095300  0.85265900  0.88844100  1
  Li  Li16  1  0.55170600  0.69904700  0.88844100  1
  Li  Li17  1  0.51932567  0.88503933  0.44489233  1
  Si  Si18  1  0.54379667  0.68833033  0.60127033  1
  Si  Si19  1  0.85546633  0.54379667  0.39872967  1
  Si  Si20  1  0.68833033  0.14453367  0.39872967  1
  Si  Si21  1  0.31166967  0.85546633  0.60127033  1
  Si  Si22  1  0.14453367  0.45620333  0.60127033  1
  Si  Si23  1  0.45620333  0.31166967  0.39872967  1
  Si  Si24  1  0.21046333  0.02166367  0.93460367  1
  Si  Si25  1  0.52213300  0.87713000  0.73206300  1
  Si  Si26  1  0.35499700  0.47786700  0.73206300  1
  Si  Si27  1  0.97833633  0.18879967  0.93460367  1
  Si  Si28  1  0.81120033  0.78953667  0.93460367  1
  Si  Si29  1  0.12287000  0.64500300  0.73206300  1
  Si  Si30  1  0.87713000  0.35499700  0.26793700  1
  Si  Si31  1  0.18879967  0.21046333  0.06539633  1
  Si  Si32  1  0.02166367  0.81120033  0.06539633  1
  Si  Si33  1  0.64500300  0.52213300  0.26793700  1
  Si  Si34  1  0.47786700  0.12287000  0.26793700  1
  Si  Si35  1  0.78953667  0.97833633  0.06539633  1
  Bi  Bi36  1  0.84841433  0.79628367  0.60775267  1
  Bi  Bi37  1  0.79628367  0.94786933  0.39224733  1
  Bi  Bi38  1  0.05213067  0.84841433  0.39224733  1
  Bi  Bi39  1  0.94786933  0.15158567  0.60775267  1
  Bi  Bi40  1  0.20371633  0.05213067  0.60775267  1
  Bi  Bi41  1  0.15158567  0.20371633  0.39224733  1
  Bi  Bi42  1  0.51508100  0.12961700  0.94108600  1
  Bi  Bi43  1  0.46295033  0.28120267  0.72558067  1
  Bi  Bi44  1  0.71879733  0.18174767  0.72558067  1
  Bi  Bi45  1  0.61453600  0.48491900  0.94108600  1
  Bi  Bi46  1  0.87038300  0.38546400  0.94108600  1
  Bi  Bi47  1  0.81825233  0.53704967  0.72558067  1
  Bi  Bi48  1  0.18174767  0.46295033  0.27441933  1
  Bi  Bi49  1  0.12961700  0.61453600  0.05891400  1
  Bi  Bi50  1  0.38546400  0.51508100  0.05891400  1
  Bi  Bi51  1  0.28120267  0.81825233  0.27441933  1
  Bi  Bi52  1  0.53704967  0.71879733  0.27441933  1
  Bi  Bi53  1  0.48491900  0.87038300  0.05891400  1
  O  O54  1  0.54212633  0.76461467  0.71954367  1
  O  O55  1  0.77751167  0.54212633  0.28045633  1
  O  O56  1  0.65465967  0.67267633  0.60267133  1
  O  O57  1  0.98198333  0.65465967  0.39732867  1
  O  O58  1  0.21480367  0.46822333  0.47863433  1
  O  O59  1  0.88910133  0.83301367  0.39081667  1
  O  O60  1  0.67267633  0.01801667  0.39732867  1
  O  O61  1  0.83301367  0.94391233  0.60918333  1
  O  O62  1  0.46822333  0.25341967  0.52136567  1
  O  O63  1  0.74658033  0.21480367  0.52136567  1
  O  O64  1  0.05608767  0.88910133  0.60918333  1
  O  O65  1  0.76461467  0.22248833  0.28045633  1
  O  O66  1  0.23538533  0.77751167  0.71954367  1
  O  O67  1  0.94391233  0.11089867  0.39081667  1
  O  O68  1  0.25341967  0.78519633  0.47863433  1
  O  O69  1  0.53177667  0.74658033  0.47863433  1
  O  O70  1  0.16698633  0.05608767  0.39081667  1
  O  O71  1  0.32732367  0.98198333  0.60267133  1
  O  O72  1  0.11089867  0.16698633  0.60918333  1
  O  O73  1  0.78519633  0.53177667  0.52136567  1
  O  O74  1  0.01801667  0.34534033  0.60267133  1
  O  O75  1  0.34534033  0.32732367  0.39732867  1
  O  O76  1  0.22248833  0.45787367  0.71954367  1
  O  O77  1  0.45787367  0.23538533  0.28045633  1
  O  O78  1  0.20879300  0.09794800  0.05287700  1
  O  O79  1  0.44417833  0.87545967  0.61378967  1
  O  O80  1  0.32132633  0.00600967  0.93600467  1
  O  O81  1  0.64865000  0.98799300  0.73066200  1
  O  O82  1  0.88147033  0.80155667  0.81196767  1
  O  O83  1  0.55576800  0.16634700  0.72415000  1
  O  O84  1  0.33934300  0.35135000  0.73066200  1
  O  O85  1  0.49968033  0.27724567  0.94251667  1
  O  O86  1  0.13489000  0.58675300  0.85469900  1
  O  O87  1  0.41324700  0.54813700  0.85469900  1
  O  O88  1  0.72275433  0.22243467  0.94251667  1
  O  O89  1  0.43128133  0.55582167  0.61378967  1
  O  O90  1  0.90205200  0.11084500  0.05287700  1
  O  O91  1  0.61057900  0.44423200  0.72415000  1
  O  O92  1  0.92008633  0.11852967  0.81196767  1
  O  O93  1  0.19844333  0.07991367  0.81196767  1
  O  O94  1  0.83365300  0.38942100  0.72415000  1
  O  O95  1  0.99399033  0.31531667  0.93600467  1
  O  O96  1  0.77756533  0.50031967  0.94251667  1
  O  O97  1  0.45186300  0.86511000  0.85469900  1
  O  O98  1  0.68468333  0.67867367  0.93600467  1
  O  O99  1  0.01200700  0.66065700  0.73066200  1
  O  O100  1  0.88915500  0.79120700  0.05287700  1
  O  O101  1  0.12454033  0.56871867  0.61378967  1
  O  O102  1  0.87545967  0.43128133  0.38621033  1
  O  O103  1  0.11084500  0.20879300  0.94712300  1
  O  O104  1  0.98799300  0.33934300  0.26933800  1
  O  O105  1  0.31531667  0.32132633  0.06399533  1
  O  O106  1  0.54813700  0.13489000  0.14530100  1
  O  O107  1  0.22243467  0.49968033  0.05748333  1
  O  O108  1  0.00600967  0.68468333  0.06399533  1
  O  O109  1  0.16634700  0.61057900  0.27585000  1
  O  O110  1  0.80155667  0.92008633  0.18803233  1
  O  O111  1  0.07991367  0.88147033  0.18803233  1
  O  O112  1  0.38942100  0.55576800  0.27585000  1
  O  O113  1  0.09794800  0.88915500  0.94712300  1
  O  O114  1  0.56871867  0.44417833  0.38621033  1
  O  O115  1  0.27724567  0.77756533  0.05748333  1
  O  O116  1  0.58675300  0.45186300  0.14530100  1
  O  O117  1  0.86511000  0.41324700  0.14530100  1
  O  O118  1  0.50031967  0.72275433  0.05748333  1
  O  O119  1  0.66065700  0.64865000  0.26933800  1
  O  O120  1  0.44423200  0.83365300  0.27585000  1
  O  O121  1  0.11852967  0.19844333  0.18803233  1
  O  O122  1  0.35135000  0.01200700  0.26933800  1
  O  O123  1  0.67867367  0.99399033  0.06399533  1
  O  O124  1  0.55582167  0.12454033  0.38621033  1
  O  O125  1  0.79120700  0.90205200  0.94712300  1
