# generated using pymatgen
data_Ba2YCl7
_symmetry_space_group_name_H-M   'P 1'
_cell_length_a   7.63610800
_cell_length_b   12.96505700
_cell_length_c   15.38446600
_cell_angle_alpha   90.00000000
_cell_angle_beta   90.00000000
_cell_angle_gamma   90.00000000
_symmetry_Int_Tables_number   1
_chemical_formula_structural   Ba2YCl7
_chemical_formula_sum   'Ba8 Y4 Cl28'
_cell_volume   1523.10175636
_cell_formula_units_Z   4
loop_
 _symmetry_equiv_pos_site_id
 _symmetry_equiv_pos_as_xyz
  1  'x, y, z'
loop_
 _atom_site_type_symbol
 _atom_site_label
 _atom_site_symmetry_multiplicity
 _atom_site_fract_x
 _atom_site_fract_y
 _atom_site_fract_z
 _atom_site_occupancy
  Ba  Ba0  1  0.25000000  0.75673500  0.95551900  1
  Ba  Ba1  1  0.25000000  0.75907100  0.24368800  1
  Ba  Ba2  1  0.75000000  0.74092900  0.74368800  1
  Ba  Ba3  1  0.75000000  0.74326500  0.45551900  1
  Ba  Ba4  1  0.25000000  0.25673500  0.54448100  1
  Ba  Ba5  1  0.25000000  0.25907100  0.25631200  1
  Ba  Ba6  1  0.75000000  0.24092900  0.75631200  1
  Ba  Ba7  1  0.75000000  0.24326500  0.04448100  1
  Y  Y8  1  0.25000000  0.44093900  0.80641900  1
  Y  Y9  1  0.75000000  0.05906100  0.30641900  1
  Y  Y10  1  0.25000000  0.94093900  0.69358100  1
  Y  Y11  1  0.75000000  0.55906100  0.19358100  1
  Cl  Cl12  1  0.75000000  0.59419000  0.59868700  1
  Cl  Cl13  1  0.47189800  0.59670600  0.84247000  1
  Cl  Cl14  1  0.02810200  0.59670600  0.84247000  1
  Cl  Cl15  1  0.53206700  0.60904700  0.32347900  1
  Cl  Cl16  1  0.96793300  0.60904700  0.32347900  1
  Cl  Cl17  1  0.97768100  0.66973300  0.10176500  1
  Cl  Cl18  1  0.52231900  0.66973300  0.10176500  1
  Cl  Cl19  1  0.47768100  0.83026700  0.60176500  1
  Cl  Cl20  1  0.02231900  0.83026700  0.60176500  1
  Cl  Cl21  1  0.46793300  0.89095300  0.82347900  1
  Cl  Cl22  1  0.03206700  0.89095300  0.82347900  1
  Cl  Cl23  1  0.52810200  0.90329400  0.34247000  1
  Cl  Cl24  1  0.97189800  0.90329400  0.34247000  1
  Cl  Cl25  1  0.25000000  0.90581000  0.09868700  1
  Cl  Cl26  1  0.75000000  0.09419000  0.90131300  1
  Cl  Cl27  1  0.47189800  0.09670600  0.65753000  1
  Cl  Cl28  1  0.02810200  0.09670600  0.65753000  1
  Cl  Cl29  1  0.53206700  0.10904700  0.17652100  1
  Cl  Cl30  1  0.96793300  0.10904700  0.17652100  1
  Cl  Cl31  1  0.52231900  0.16973300  0.39823500  1
  Cl  Cl32  1  0.97768100  0.16973300  0.39823500  1
  Cl  Cl33  1  0.02231900  0.33026700  0.89823500  1
  Cl  Cl34  1  0.47768100  0.33026700  0.89823500  1
  Cl  Cl35  1  0.03206700  0.39095300  0.67652100  1
  Cl  Cl36  1  0.46793300  0.39095300  0.67652100  1
  Cl  Cl37  1  0.97189800  0.40329400  0.15753000  1
  Cl  Cl38  1  0.52810200  0.40329400  0.15753000  1
  Cl  Cl39  1  0.25000000  0.40581000  0.40131300  1
