# generated using pymatgen
data_Li4V3Sn3(SbO8)2
_symmetry_space_group_name_H-M   'P 1'
_cell_length_a   6.20744840
_cell_length_b   6.25467008
_cell_length_c   10.24867419
_cell_angle_alpha   90.57681684
_cell_angle_beta   89.84950977
_cell_angle_gamma   119.46090090
_symmetry_Int_Tables_number   1
_chemical_formula_structural   Li4V3Sn3(SbO8)2
_chemical_formula_sum   'Li4 V3 Sn3 Sb2 O16'
_cell_volume   346.43835963
_cell_formula_units_Z   1
loop_
 _symmetry_equiv_pos_site_id
 _symmetry_equiv_pos_as_xyz
  1  'x, y, z'
loop_
 _atom_site_type_symbol
 _atom_site_label
 _atom_site_symmetry_multiplicity
 _atom_site_fract_x
 _atom_site_fract_y
 _atom_site_fract_z
 _atom_site_occupancy
  Li  Li0  1  0.66709500  0.33967700  0.10839300  1
  Li  Li1  1  0.99322400  0.98430400  0.00738400  1
  Li  Li2  1  0.99742600  0.98978700  0.50154000  1
  Li  Li3  1  0.33054750  0.66397450  0.60183000  1
  V  V4  1  0.83048100  0.66218200  0.78332100  1
  V  V5  1  0.66388900  0.83215300  0.28442200  1
  V  V6  1  0.16947500  0.82836450  0.28528100  1
  Sn  Sn7  1  0.83355900  0.16936100  0.78500500  1
  Sn  Sn8  1  0.33585100  0.16981900  0.78462600  1
  Sn  Sn9  1  0.16993750  0.33489050  0.28512400  1
  Sb  Sb10  1  0.66742600  0.33113250  0.50283400  1
  Sb  Sb11  1  0.33504350  0.67396300  0.00984900  1
  O  O12  1  0.83815900  0.14425000  0.39746800  1
  O  O13  1  0.51874900  0.03524400  0.65758300  1
  O  O14  1  0.66354550  0.32902750  0.89570100  1
  O  O15  1  0.00040050  0.99948750  0.68155700  1
  O  O16  1  0.00942350  0.00104800  0.18583400  1
  O  O17  1  0.30804550  0.14416800  0.39918400  1
  O  O18  1  0.97203100  0.48789150  0.67374900  1
  O  O19  1  0.51617500  0.49017050  0.67489700  1
  O  O20  1  0.15152450  0.30501000  0.90513900  1
  O  O21  1  0.86985500  0.71164600  0.38178100  1
  O  O22  1  0.49298100  0.52503850  0.17107800  1
  O  O23  1  0.03157650  0.52480200  0.17054600  1
  O  O24  1  0.32140050  0.66551350  0.39239300  1
  O  O25  1  0.69517200  0.84568300  0.89349200  1
  O  O26  1  0.46749200  0.96750900  0.18018100  1
  O  O27  1  0.14981450  0.84390500  0.89196500  1
