# generated using pymatgen
data_TiFe3Sn2(PO4)6
_symmetry_space_group_name_H-M   'P 1'
_cell_length_a   8.67440779
_cell_length_b   8.67440779
_cell_length_c   22.16307016
_cell_angle_alpha   90.00000000
_cell_angle_beta   90.00000000
_cell_angle_gamma   120.00000000
_symmetry_Int_Tables_number   1
_chemical_formula_structural   TiFe3Sn2(PO4)6
_chemical_formula_sum   'Ti3 Fe9 Sn6 P18 O72'
_cell_volume   1444.24283707
_cell_formula_units_Z   3
loop_
 _symmetry_equiv_pos_site_id
 _symmetry_equiv_pos_as_xyz
  1  'x, y, z'
loop_
 _atom_site_type_symbol
 _atom_site_label
 _atom_site_symmetry_multiplicity
 _atom_site_fract_x
 _atom_site_fract_y
 _atom_site_fract_z
 _atom_site_occupancy
  Ti  Ti0  1  0.00000000  0.00000000  0.14640700  1
  Ti  Ti1  1  0.66666667  0.33333333  0.47974033  1
  Ti  Ti2  1  0.33333333  0.66666667  0.81307367  1
  Fe  Fe3  1  0.66666667  0.33333333  0.18431733  1
  Fe  Fe4  1  0.33333333  0.66666667  0.31595867  1
  Fe  Fe5  1  0.33333333  0.66666667  0.01805267  1
  Fe  Fe6  1  0.33333333  0.66666667  0.51765067  1
  Fe  Fe7  1  0.00000000  0.00000000  0.64929200  1
  Fe  Fe8  1  0.00000000  0.00000000  0.35138600  1
  Fe  Fe9  1  0.00000000  0.00000000  0.85098400  1
  Fe  Fe10  1  0.66666667  0.33333333  0.98262533  1
  Fe  Fe11  1  0.66666667  0.33333333  0.68471933  1
  Sn  Sn12  1  0.66666667  0.33333333  0.32874633  1
  Sn  Sn13  1  0.33333333  0.66666667  0.16595767  1
  Sn  Sn14  1  0.33333333  0.66666667  0.66207967  1
  Sn  Sn15  1  0.00000000  0.00000000  0.49929100  1
  Sn  Sn16  1  0.00000000  0.00000000  0.99541300  1
  Sn  Sn17  1  0.66666667  0.33333333  0.83262433  1
  P  P18  1  0.71076167  0.71091333  0.24938133  1
  P  P19  1  0.28908667  0.99984833  0.24938133  1
  P  P20  1  0.66686000  0.04371800  0.08470600  1
  P  P21  1  0.37685800  0.33314000  0.08470600  1
  P  P22  1  0.95628200  0.62314200  0.08470600  1
  P  P23  1  0.00015167  0.28923833  0.24938133  1
  P  P24  1  0.37742833  0.04424667  0.58271467  1
  P  P25  1  0.95575333  0.33318167  0.58271467  1
  P  P26  1  0.33352667  0.37705133  0.41803933  1
  P  P27  1  0.04352467  0.66647333  0.41803933  1
  P  P28  1  0.62294867  0.95647533  0.41803933  1
  P  P29  1  0.66681833  0.62257167  0.58271467  1
  P  P30  1  0.04409500  0.37758000  0.91604800  1
  P  P31  1  0.62242000  0.66651500  0.91604800  1
  P  P32  1  0.00019333  0.71038467  0.75137267  1
  P  P33  1  0.71019133  0.99980667  0.75137267  1
  P  P34  1  0.28961533  0.28980867  0.75137267  1
  P  P35  1  0.33348500  0.95590500  0.91604800  1
  O  O36  1  0.85816533  0.53541167  0.02570267  1
  O  O37  1  0.67724633  0.14183467  0.02570267  1
  O  O38  1  0.69038667  0.52362033  0.24767033  1
  O  O39  1  0.46458833  0.32275367  0.02570267  1
  O  O40  1  0.80982467  0.81834133  0.19249233  1
  O  O41  1  0.52162167  0.69378033  0.24737033  1
  O  O42  1  0.47637967  0.16676633  0.24767033  1
  O  O43  1  0.30621967  0.82784133  0.24737033  1
  O  O44  1  0.65552100  0.13468400  0.14174000  1
  O  O45  1  0.17215867  0.47837833  0.24737033  1
  O  O46  1  0.83426433  0.02153767  0.08754867  1
  O  O47  1  0.47916300  0.34447900  0.14174000  1
  O  O48  1  0.18165867  0.99148333  0.19249233  1
  O  O49  1  0.83323367  0.30961333  0.24767033  1
  O  O50  1  0.49688200  0.85206000  0.08470800  1
  O  O51  1  0.00851667  0.19017533  0.19249233  1
  O  O52  1  0.35517800  0.50311800  0.08470800  1
  O  O53  1  0.18727333  0.16573567  0.08754867  1
  O  O54  1  0.14794000  0.64482200  0.08470800  1
  O  O55  1  0.86531600  0.52083700  0.14174000  1
  O  O56  1  0.19782000  0.00602600  0.30775500  1
  O  O57  1  0.97846233  0.81272667  0.08754867  1
  O  O58  1  0.99397400  0.19179400  0.30775500  1
  O  O59  1  0.80820600  0.80218000  0.30775500  1
  O  O60  1  0.52483200  0.86874500  0.35903600  1
  O  O61  1  0.34391300  0.47516800  0.35903600  1
  O  O62  1  0.35705333  0.85695367  0.58100367  1
  O  O63  1  0.13125500  0.65608700  0.35903600  1
  O  O64  1  0.47649133  0.15167467  0.52582567  1
  O  O65  1  0.18828833  0.02711367  0.58070367  1
  O  O66  1  0.14304633  0.50009967  0.58100367  1
  O  O67  1  0.97288633  0.16117467  0.58070367  1
  O  O68  1  0.32218767  0.46801733  0.47507333  1
  O  O69  1  0.83882533  0.81171167  0.58070367  1
  O  O70  1  0.50093100  0.35487100  0.42088200  1
  O  O71  1  0.14582967  0.67781233  0.47507333  1
  O  O72  1  0.84832533  0.32481667  0.52582567  1
  O  O73  1  0.49990033  0.64294667  0.58100367  1
  O  O74  1  0.16354867  0.18539333  0.41804133  1
  O  O75  1  0.67518333  0.52350867  0.52582567  1
  O  O76  1  0.02184467  0.83645133  0.41804133  1
  O  O77  1  0.85394000  0.49906900  0.42088200  1
  O  O78  1  0.81460667  0.97815533  0.41804133  1
  O  O79  1  0.53198267  0.85417033  0.47507333  1
  O  O80  1  0.86448667  0.33935933  0.64108833  1
  O  O81  1  0.64512900  0.14606000  0.42088200  1
  O  O82  1  0.66064067  0.52512733  0.64108833  1
  O  O83  1  0.47487267  0.13551333  0.64108833  1
  O  O84  1  0.19149867  0.20207833  0.69236933  1
  O  O85  1  0.01057967  0.80850133  0.69236933  1
  O  O86  1  0.02372000  0.19028700  0.91433700  1
  O  O87  1  0.79792167  0.98942033  0.69236933  1
  O  O88  1  0.14315800  0.48500800  0.85915900  1
  O  O89  1  0.85495500  0.36044700  0.91403700  1
  O  O90  1  0.80971300  0.83343300  0.91433700  1
  O  O91  1  0.63955300  0.49450800  0.91403700  1
  O  O92  1  0.98885433  0.80135067  0.80840667  1
  O  O93  1  0.50549200  0.14504500  0.91403700  1
  O  O94  1  0.16759767  0.68820433  0.75421533  1
  O  O95  1  0.81249633  0.01114567  0.80840667  1
  O  O96  1  0.51499200  0.65815000  0.85915900  1
  O  O97  1  0.16656700  0.97628000  0.91433700  1
  O  O98  1  0.83021533  0.51872667  0.75137467  1
  O  O99  1  0.34185000  0.85684200  0.85915900  1
  O  O100  1  0.68851133  0.16978467  0.75137467  1
  O  O101  1  0.52060667  0.83240233  0.75421533  1
  O  O102  1  0.48127333  0.31148867  0.75137467  1
  O  O103  1  0.19864933  0.18750367  0.80840667  1
  O  O104  1  0.53115333  0.67269267  0.97442167  1
  O  O105  1  0.31179567  0.47939333  0.75421533  1
  O  O106  1  0.32730733  0.85846067  0.97442167  1
  O  O107  1  0.14153933  0.46884667  0.97442167  1
