# generated using pymatgen
data_Na3CoO3
_symmetry_space_group_name_H-M   'P 1'
_cell_length_a   6.03028300
_cell_length_b   5.88266200
_cell_length_c   12.60106421
_cell_angle_alpha   90.00000000
_cell_angle_beta   118.66779251
_cell_angle_gamma   90.00000000
_symmetry_Int_Tables_number   1
_chemical_formula_structural   Na3CoO3
_chemical_formula_sum   'Na12 Co4 O12'
_cell_volume   392.21513651
_cell_formula_units_Z   4
loop_
 _symmetry_equiv_pos_site_id
 _symmetry_equiv_pos_as_xyz
  1  'x, y, z'
loop_
 _atom_site_type_symbol
 _atom_site_label
 _atom_site_symmetry_multiplicity
 _atom_site_fract_x
 _atom_site_fract_y
 _atom_site_fract_z
 _atom_site_occupancy
  Na  Na0  1  0.01645700  0.01817400  0.87951200  1
  Na  Na1  1  0.10668300  0.51844400  0.90196500  1
  Na  Na2  1  0.54440100  0.06402000  0.31259500  1
  Na  Na3  1  0.45559900  0.56402000  0.18740500  1
  Na  Na4  1  0.89331700  0.01844400  0.59803500  1
  Na  Na5  1  0.98354300  0.51817400  0.62048800  1
  Na  Na6  1  0.01645700  0.48182600  0.37951200  1
  Na  Na7  1  0.10668300  0.98155600  0.40196500  1
  Na  Na8  1  0.54440100  0.43598000  0.81259500  1
  Na  Na9  1  0.45559900  0.93598000  0.68740500  1
  Na  Na10  1  0.89331700  0.48155600  0.09803500  1
  Na  Na11  1  0.98354300  0.98182600  0.12048800  1
  Co  Co12  1  0.50758400  0.64796800  0.41408200  1
  Co  Co13  1  0.49241600  0.14796800  0.08591800  1
  Co  Co14  1  0.50758400  0.85203200  0.91408200  1
  Co  Co15  1  0.49241600  0.35203200  0.58591800  1
  O  O16  1  0.77946300  0.26184900  0.71943400  1
  O  O17  1  0.51016900  0.31773400  0.43659400  1
  O  O18  1  0.19447600  0.25869700  0.06691300  1
  O  O19  1  0.80552400  0.75869700  0.43308700  1
  O  O20  1  0.48983100  0.81773400  0.06340600  1
  O  O21  1  0.22053700  0.76184900  0.78056600  1
  O  O22  1  0.77946300  0.23815100  0.21943400  1
  O  O23  1  0.51016900  0.18226600  0.93659400  1
  O  O24  1  0.19447600  0.24130300  0.56691300  1
  O  O25  1  0.80552400  0.74130300  0.93308700  1
  O  O26  1  0.48983100  0.68226600  0.56340600  1
  O  O27  1  0.22053700  0.73815100  0.28056600  1
