# generated using pymatgen
data_TeP6H30(NO4)6
_symmetry_space_group_name_H-M   'P 1'
_cell_length_a   11.38098407
_cell_length_b   11.38098407
_cell_length_c   18.43040633
_cell_angle_alpha   90.00000000
_cell_angle_beta   90.00000000
_cell_angle_gamma   120.00000000
_symmetry_Int_Tables_number   1
_chemical_formula_structural   TeP6H30(NO4)6
_chemical_formula_sum   'Te3 P18 H90 N18 O72'
_cell_volume   2067.40314536
_cell_formula_units_Z   3
loop_
 _symmetry_equiv_pos_site_id
 _symmetry_equiv_pos_as_xyz
  1  'x, y, z'
loop_
 _atom_site_type_symbol
 _atom_site_label
 _atom_site_symmetry_multiplicity
 _atom_site_fract_x
 _atom_site_fract_y
 _atom_site_fract_z
 _atom_site_occupancy
  Te  Te0  1  0.00000000  0.00000000  0.00000000  1
  Te  Te1  1  0.66666667  0.33333333  0.33333333  1
  Te  Te2  1  0.33333333  0.66666667  0.66666667  1
  P  P3  1  0.30623033  0.80038967  0.99678467  1
  P  P4  1  0.49415933  0.69376967  0.99678467  1
  P  P5  1  0.19961033  0.50584067  0.99678467  1
  P  P6  1  0.36043633  0.53294367  0.33654867  1
  P  P7  1  0.17250733  0.63956367  0.33654867  1
  P  P8  1  0.46705633  0.82749267  0.33654867  1
  P  P9  1  0.97289700  0.13372300  0.33011800  1
  P  P10  1  0.16082600  0.02710300  0.33011800  1
  P  P11  1  0.86627700  0.83917400  0.33011800  1
  P  P12  1  0.02710300  0.86627700  0.66988200  1
  P  P13  1  0.83917400  0.97289700  0.66988200  1
  P  P14  1  0.13372300  0.16082600  0.66988200  1
  P  P15  1  0.63956367  0.46705633  0.66345133  1
  P  P16  1  0.82749267  0.36043633  0.66345133  1
  P  P17  1  0.53294367  0.17250733  0.66345133  1
  P  P18  1  0.69376967  0.19961033  0.00321533  1
  P  P19  1  0.50584067  0.30623033  0.00321533  1
  P  P20  1  0.80038967  0.49415933  0.00321533  1
  H  H21  1  0.76876800  0.81058100  0.04189900  1
  H  H22  1  0.04181300  0.23123200  0.04189900  1
  H  H23  1  0.18941900  0.95818700  0.04189900  1
  H  H24  1  0.89789867  0.52275233  0.29143433  1
  H  H25  1  0.62485367  0.10210133  0.29143433  1
  H  H26  1  0.47724767  0.37514633  0.29143433  1
  H  H27  1  0.59399400  0.59990400  0.14190100  1
  H  H28  1  0.00591000  0.40600600  0.14190100  1
  H  H29  1  0.40009600  0.99409000  0.14190100  1
  H  H30  1  0.07267267  0.73342933  0.19143233  1
  H  H31  1  0.66075667  0.92732733  0.19143233  1
  H  H32  1  0.26657067  0.33924333  0.19143233  1
  H  H33  1  0.71597367  0.65927733  0.20727033  1
  H  H34  1  0.94330367  0.28402633  0.20727033  1
  H  H35  1  0.34072267  0.05669633  0.20727033  1
  H  H36  1  0.95069300  0.67405600  0.12606300  1
  H  H37  1  0.72336300  0.04930700  0.12606300  1
  H  H38  1  0.32594400  0.27663700  0.12606300  1
  H  H39  1  0.07110800  0.84156500  0.12668200  1
  H  H40  1  0.77045700  0.92889200  0.12668200  1
  H  H41  1  0.15843500  0.22954300  0.12668200  1
  H  H42  1  0.59555867  0.49176833  0.20665133  1
  H  H43  1  0.89620967  0.40444133  0.20665133  1
  H  H44  1  0.50823167  0.10379033  0.20665133  1
  H  H45  1  0.37849367  0.88579233  0.47368933  1
  H  H46  1  0.50729867  0.62150633  0.47368933  1
  H  H47  1  0.11420767  0.49270133  0.47368933  1
  H  H48  1  0.28817300  0.44754100  0.85964400  1
  H  H49  1  0.15936800  0.71182700  0.85964400  1
  H  H50  1  0.55245900  0.84063200  0.85964400  1
  H  H51  1  0.43543467  0.14391433  0.37523233  1
  H  H52  1  0.70847967  0.56456533  0.37523233  1
  H  H53  1  0.85608567  0.29152033  0.37523233  1
  H  H54  1  0.56456533  0.85608567  0.62476767  1
  H  H55  1  0.29152033  0.43543467  0.62476767  1
  H  H56  1  0.14391433  0.70847967  0.62476767  1
  H  H57  1  0.26066067  0.93323733  0.47523433  1
  H  H58  1  0.67257667  0.73933933  0.47523433  1
  H  H59  1  0.06676267  0.32742333  0.47523433  1
  H  H60  1  0.73933933  0.06676267  0.52476567  1
  H  H61  1  0.32742333  0.26066067  0.52476567  1
  H  H62  1  0.93323733  0.67257667  0.52476567  1
  H  H63  1  0.38264033  0.99261067  0.54060367  1
  H  H64  1  0.60997033  0.61735967  0.54060367  1
  H  H65  1  0.00738933  0.39002967  0.54060367  1
  H  H66  1  0.61735967  0.00738933  0.45939633  1
  H  H67  1  0.39002967  0.38264033  0.45939633  1
  H  H68  1  0.99261067  0.60997033  0.45939633  1
  H  H69  1  0.73777467  0.17489833  0.46001533  1
  H  H70  1  0.43712367  0.26222533  0.46001533  1
  H  H71  1  0.82510167  0.56287633  0.46001533  1
  H  H72  1  0.26222533  0.82510167  0.53998467  1
  H  H73  1  0.56287633  0.73777467  0.53998467  1
  H  H74  1  0.17489833  0.43712367  0.53998467  1
  H  H75  1  0.04516033  0.21912567  0.80702267  1
  H  H76  1  0.17396533  0.95483967  0.80702267  1
  H  H77  1  0.78087433  0.82603467  0.80702267  1
  H  H78  1  0.95483967  0.78087433  0.19297733  1
  H  H79  1  0.82603467  0.04516033  0.19297733  1
  H  H80  1  0.21912567  0.17396533  0.19297733  1
  H  H81  1  0.10210133  0.47724767  0.70856567  1
  H  H82  1  0.37514633  0.89789867  0.70856567  1
  H  H83  1  0.52275233  0.62485367  0.70856567  1
  H  H84  1  0.23123200  0.18941900  0.95810100  1
  H  H85  1  0.95818700  0.76876800  0.95810100  1
  H  H86  1  0.81058100  0.04181300  0.95810100  1
  H  H87  1  0.92732733  0.26657067  0.80856767  1
  H  H88  1  0.33924333  0.07267267  0.80856767  1
  H  H89  1  0.73342933  0.66075667  0.80856767  1
  H  H90  1  0.40600600  0.40009600  0.85809900  1
  H  H91  1  0.99409000  0.59399400  0.85809900  1
  H  H92  1  0.59990400  0.00591000  0.85809900  1
  H  H93  1  0.04930700  0.32594400  0.87393700  1
  H  H94  1  0.27663700  0.95069300  0.87393700  1
  H  H95  1  0.67405600  0.72336300  0.87393700  1
  H  H96  1  0.28402633  0.34072267  0.79272967  1
  H  H97  1  0.05669633  0.71597367  0.79272967  1
  H  H98  1  0.65927733  0.94330367  0.79272967  1
  H  H99  1  0.40444133  0.50823167  0.79334867  1
  H  H100  1  0.10379033  0.59555867  0.79334867  1
  H  H101  1  0.49176833  0.89620967  0.79334867  1
  H  H102  1  0.92889200  0.15843500  0.87331800  1
  H  H103  1  0.22954300  0.07110800  0.87331800  1
  H  H104  1  0.84156500  0.77045700  0.87331800  1
  H  H105  1  0.71182700  0.55245900  0.14035600  1
  H  H106  1  0.84063200  0.28817300  0.14035600  1
  H  H107  1  0.44754100  0.15936800  0.14035600  1
  H  H108  1  0.62150633  0.11420767  0.52631067  1
  H  H109  1  0.49270133  0.37849367  0.52631067  1
  H  H110  1  0.88579233  0.50729867  0.52631067  1
  N  N111  1  0.01378500  0.75734100  0.15898600  1
  N  N112  1  0.74355600  0.98621500  0.15898600  1
  N  N113  1  0.24265900  0.25644400  0.15898600  1
  N  N114  1  0.65288167  0.57599233  0.17434733  1
  N  N115  1  0.92311067  0.34711833  0.17434733  1
  N  N116  1  0.42400767  0.07688933  0.17434733  1
  N  N117  1  0.68045167  0.09067433  0.49231933  1
  N  N118  1  0.41022267  0.31954833  0.49231933  1
  N  N119  1  0.90932567  0.58977733  0.49231933  1
  N  N120  1  0.31954833  0.90932567  0.50768067  1
  N  N121  1  0.58977733  0.68045167  0.50768067  1
  N  N122  1  0.09067433  0.41022267  0.50768067  1
  N  N123  1  0.34711833  0.42400767  0.82565267  1
  N  N124  1  0.07688933  0.65288167  0.82565267  1
  N  N125  1  0.57599233  0.92311067  0.82565267  1
  N  N126  1  0.98621500  0.24265900  0.84101400  1
  N  N127  1  0.25644400  0.01378500  0.84101400  1
  N  N128  1  0.75734100  0.74355600  0.84101400  1
  O  O129  1  0.13287733  0.99384667  0.06442167  1
  O  O130  1  0.86096933  0.86712267  0.06442167  1
  O  O131  1  0.00615333  0.13903067  0.06442167  1
  O  O132  1  0.53378933  0.33948667  0.26891167  1
  O  O133  1  0.80569733  0.46621067  0.26891167  1
  O  O134  1  0.66051333  0.19430267  0.26891167  1
  O  O135  1  0.11207900  0.40195100  0.05207800  1
  O  O136  1  0.28987200  0.88792100  0.05207800  1
  O  O137  1  0.59804900  0.71012800  0.05207800  1
  O  O138  1  0.55458767  0.93138233  0.28125533  1
  O  O139  1  0.37679467  0.44541233  0.28125533  1
  O  O140  1  0.06861767  0.62320533  0.28125533  1
  O  O141  1  0.35695100  0.55214500  0.01564000  1
  O  O142  1  0.19519400  0.64304900  0.01564000  1
  O  O143  1  0.44785500  0.80480600  0.01564000  1
  O  O144  1  0.30971567  0.78118833  0.31769333  1
  O  O145  1  0.47147267  0.69028433  0.31769333  1
  O  O146  1  0.21881167  0.52852733  0.31769333  1
  O  O147  1  0.13936400  0.63150300  0.41598500  1
  O  O148  1  0.49213900  0.86063600  0.41598500  1
  O  O149  1  0.36849700  0.50786100  0.41598500  1
  O  O150  1  0.52730267  0.70183033  0.91734833  1
  O  O151  1  0.17452767  0.47269733  0.91734833  1
  O  O152  1  0.29816967  0.82547233  0.91734833  1
  O  O153  1  0.79954400  0.32718000  0.39775500  1
  O  O154  1  0.52763600  0.20045600  0.39775500  1
  O  O155  1  0.67282000  0.47236400  0.39775500  1
  O  O156  1  0.20045600  0.67282000  0.60224500  1
  O  O157  1  0.47236400  0.79954400  0.60224500  1
  O  O158  1  0.32718000  0.52763600  0.60224500  1
  O  O159  1  0.77874567  0.73528433  0.38541133  1
  O  O160  1  0.95653867  0.22125433  0.38541133  1
  O  O161  1  0.26471567  0.04346133  0.38541133  1
  O  O162  1  0.22125433  0.26471567  0.61458867  1
  O  O163  1  0.04346133  0.77874567  0.61458867  1
  O  O164  1  0.73528433  0.95653867  0.61458867  1
  O  O165  1  0.02361767  0.88547833  0.34897333  1
  O  O166  1  0.86186067  0.97638233  0.34897333  1
  O  O167  1  0.11452167  0.13813933  0.34897333  1
  O  O168  1  0.97638233  0.11452167  0.65102667  1
  O  O169  1  0.13813933  0.02361767  0.65102667  1
  O  O170  1  0.88547833  0.86186067  0.65102667  1
  O  O171  1  0.80603067  0.96483633  0.74931833  1
  O  O172  1  0.15880567  0.19396933  0.74931833  1
  O  O173  1  0.03516367  0.84119433  0.74931833  1
  O  O174  1  0.19396933  0.03516367  0.25068167  1
  O  O175  1  0.84119433  0.80603067  0.25068167  1
  O  O176  1  0.96483633  0.15880567  0.25068167  1
  O  O177  1  0.46621067  0.66051333  0.73108833  1
  O  O178  1  0.19430267  0.53378933  0.73108833  1
  O  O179  1  0.33948667  0.80569733  0.73108833  1
  O  O180  1  0.86712267  0.00615333  0.93557833  1
  O  O181  1  0.13903067  0.13287733  0.93557833  1
  O  O182  1  0.99384667  0.86096933  0.93557833  1
  O  O183  1  0.44541233  0.06861767  0.71874467  1
  O  O184  1  0.62320533  0.55458767  0.71874467  1
  O  O185  1  0.93138233  0.37679467  0.71874467  1
  O  O186  1  0.88792100  0.59804900  0.94792200  1
  O  O187  1  0.71012800  0.11207900  0.94792200  1
  O  O188  1  0.40195100  0.28987200  0.94792200  1
  O  O189  1  0.69028433  0.21881167  0.68230667  1
  O  O190  1  0.52852733  0.30971567  0.68230667  1
  O  O191  1  0.78118833  0.47147267  0.68230667  1
  O  O192  1  0.64304900  0.44785500  0.98436000  1
  O  O193  1  0.80480600  0.35695100  0.98436000  1
  O  O194  1  0.55214500  0.19519400  0.98436000  1
  O  O195  1  0.47269733  0.29816967  0.08265167  1
  O  O196  1  0.82547233  0.52730267  0.08265167  1
  O  O197  1  0.70183033  0.17452767  0.08265167  1
  O  O198  1  0.86063600  0.36849700  0.58401500  1
  O  O199  1  0.50786100  0.13936400  0.58401500  1
  O  O200  1  0.63150300  0.49213900  0.58401500  1
