# generated using pymatgen
data_Ce5Y2O13
_symmetry_space_group_name_H-M   'P 1'
_cell_length_a   3.83090979
_cell_length_b   3.83090979
_cell_length_c   66.89940115
_cell_angle_alpha   90.00000000
_cell_angle_beta   90.00000000
_cell_angle_gamma   120.00000000
_symmetry_Int_Tables_number   1
_chemical_formula_structural   Ce5Y2O13
_chemical_formula_sum   'Ce15 Y6 O39'
_cell_volume   850.26971725
_cell_formula_units_Z   3
loop_
 _symmetry_equiv_pos_site_id
 _symmetry_equiv_pos_as_xyz
  1  'x, y, z'
loop_
 _atom_site_type_symbol
 _atom_site_label
 _atom_site_symmetry_multiplicity
 _atom_site_fract_x
 _atom_site_fract_y
 _atom_site_fract_z
 _atom_site_occupancy
  Ce  Ce0  1  0.33333333  0.66666667  0.23875567  1
  Ce  Ce1  1  0.66666667  0.33333333  0.19108933  1
  Ce  Ce2  1  0.00000000  0.00000000  0.14345300  1
  Ce  Ce3  1  0.33333333  0.66666667  0.09580167  1
  Ce  Ce4  1  0.66666667  0.33333333  0.04836433  1
  Ce  Ce5  1  0.00000000  0.00000000  0.57208900  1
  Ce  Ce6  1  0.33333333  0.66666667  0.52442267  1
  Ce  Ce7  1  0.66666667  0.33333333  0.47678633  1
  Ce  Ce8  1  0.00000000  0.00000000  0.42913500  1
  Ce  Ce9  1  0.33333333  0.66666667  0.38169767  1
  Ce  Ce10  1  0.66666667  0.33333333  0.90542233  1
  Ce  Ce11  1  0.00000000  0.00000000  0.85775600  1
  Ce  Ce12  1  0.33333333  0.66666667  0.81011967  1
  Ce  Ce13  1  0.66666667  0.33333333  0.76246833  1
  Ce  Ce14  1  0.00000000  0.00000000  0.71503100  1
  Y  Y15  1  0.00000000  0.00000000  0.00106600  1
  Y  Y16  1  0.00000000  0.00000000  0.28373600  1
  Y  Y17  1  0.66666667  0.33333333  0.33439933  1
  Y  Y18  1  0.66666667  0.33333333  0.61706933  1
  Y  Y19  1  0.33333333  0.66666667  0.66773267  1
  Y  Y20  1  0.33333333  0.66666667  0.95040267  1
  O  O21  1  0.33333333  0.66666667  0.27370967  1
  O  O22  1  0.66666667  0.33333333  0.30254933  1
  O  O23  1  0.66666667  0.33333333  0.22583433  1
  O  O24  1  0.33333333  0.66666667  0.20214467  1
  O  O25  1  0.00000000  0.00000000  0.24969600  1
  O  O26  1  0.00000000  0.00000000  0.17823600  1
  O  O27  1  0.66666667  0.33333333  0.15450033  1
  O  O28  1  0.66666667  0.33333333  0.08292633  1
  O  O29  1  0.00000000  0.00000000  0.10685000  1
  O  O30  1  0.33333333  0.66666667  0.13058967  1
  O  O31  1  0.00000000  0.00000000  0.03598100  1
  O  O32  1  0.33333333  0.66666667  0.05947367  1
  O  O33  1  0.66666667  0.33333333  0.00714133  1
  O  O34  1  0.00000000  0.00000000  0.60704300  1
  O  O35  1  0.33333333  0.66666667  0.63588267  1
  O  O36  1  0.33333333  0.66666667  0.55916767  1
  O  O37  1  0.00000000  0.00000000  0.53547800  1
  O  O38  1  0.66666667  0.33333333  0.58302933  1
  O  O39  1  0.66666667  0.33333333  0.51156933  1
  O  O40  1  0.33333333  0.66666667  0.48783367  1
  O  O41  1  0.33333333  0.66666667  0.41625967  1
  O  O42  1  0.66666667  0.33333333  0.44018333  1
  O  O43  1  0.00000000  0.00000000  0.46392300  1
  O  O44  1  0.66666667  0.33333333  0.36931433  1
  O  O45  1  0.00000000  0.00000000  0.39280700  1
  O  O46  1  0.33333333  0.66666667  0.34047467  1
  O  O47  1  0.66666667  0.33333333  0.94037633  1
  O  O48  1  0.00000000  0.00000000  0.96921600  1
  O  O49  1  0.00000000  0.00000000  0.89250100  1
  O  O50  1  0.66666667  0.33333333  0.86881133  1
  O  O51  1  0.33333333  0.66666667  0.91636267  1
  O  O52  1  0.33333333  0.66666667  0.84490267  1
  O  O53  1  0.00000000  0.00000000  0.82116700  1
  O  O54  1  0.00000000  0.00000000  0.74959300  1
  O  O55  1  0.33333333  0.66666667  0.77351667  1
  O  O56  1  0.66666667  0.33333333  0.79725633  1
  O  O57  1  0.33333333  0.66666667  0.70264767  1
  O  O58  1  0.66666667  0.33333333  0.72614033  1
  O  O59  1  0.00000000  0.00000000  0.67380800  1
