# generated using pymatgen
data_Li3CuS2
_symmetry_space_group_name_H-M   'P 1'
_cell_length_a   11.25777800
_cell_length_b   11.25777800
_cell_length_c   11.25777800
_cell_angle_alpha   90.00000000
_cell_angle_beta   90.00000000
_cell_angle_gamma   90.00000000
_symmetry_Int_Tables_number   1
_chemical_formula_structural   Li3CuS2
_chemical_formula_sum   'Li48 Cu16 S32'
_cell_volume   1426.78337663
_cell_formula_units_Z   16
loop_
 _symmetry_equiv_pos_site_id
 _symmetry_equiv_pos_as_xyz
  1  'x, y, z'
loop_
 _atom_site_type_symbol
 _atom_site_label
 _atom_site_symmetry_multiplicity
 _atom_site_fract_x
 _atom_site_fract_y
 _atom_site_fract_z
 _atom_site_occupancy
  Li  Li0  1  0.62278150  0.37311450  0.37598050  1
  Li  Li1  1  0.87721850  0.37311450  0.62401950  1
  Li  Li2  1  0.87598050  0.62278150  0.12688550  1
  Li  Li3  1  0.87598050  0.37721850  0.37311450  1
  Li  Li4  1  0.12401950  0.12278150  0.37311450  1
  Li  Li5  1  0.12401950  0.87721850  0.12688550  1
  Li  Li6  1  0.12688550  0.12401950  0.87721850  1
  Li  Li7  1  0.12688550  0.87598050  0.62278150  1
  Li  Li8  1  0.12688550  0.62401950  0.12278150  1
  Li  Li9  1  0.12688550  0.37598050  0.37721850  1
  Li  Li10  1  0.12278150  0.37311450  0.12401950  1
  Li  Li11  1  0.12278150  0.12688550  0.62401950  1
  Li  Li12  1  0.37721850  0.12688550  0.37598050  1
  Li  Li13  1  0.37721850  0.37311450  0.87598050  1
  Li  Li14  1  0.37311450  0.12401950  0.12278150  1
  Li  Li15  1  0.37311450  0.87598050  0.37721850  1
  Li  Li16  1  0.37311450  0.37598050  0.62278150  1
  Li  Li17  1  0.37311450  0.62401950  0.87721850  1
  Li  Li18  1  0.37598050  0.37721850  0.12688550  1
  Li  Li19  1  0.37598050  0.62278150  0.37311450  1
  Li  Li20  1  0.62401950  0.87721850  0.37311450  1
  Li  Li21  1  0.62401950  0.12278150  0.12688550  1
  Li  Li22  1  0.62278150  0.12688550  0.87598050  1
  Li  Li23  1  0.87721850  0.12688550  0.12401950  1
  Li  Li24  1  0.12278150  0.87311450  0.87598050  1
  Li  Li25  1  0.37721850  0.87311450  0.12401950  1
  Li  Li26  1  0.37598050  0.12278150  0.62688550  1
  Li  Li27  1  0.37598050  0.87721850  0.87311450  1
  Li  Li28  1  0.62401950  0.62278150  0.87311450  1
  Li  Li29  1  0.62401950  0.37721850  0.62688550  1
  Li  Li30  1  0.62688550  0.62401950  0.37721850  1
  Li  Li31  1  0.62688550  0.37598050  0.12278150  1
  Li  Li32  1  0.62688550  0.12401950  0.62278150  1
  Li  Li33  1  0.62688550  0.87598050  0.87721850  1
  Li  Li34  1  0.62278150  0.87311450  0.62401950  1
  Li  Li35  1  0.62278150  0.62688550  0.12401950  1
  Li  Li36  1  0.87721850  0.62688550  0.87598050  1
  Li  Li37  1  0.87721850  0.87311450  0.37598050  1
  Li  Li38  1  0.87311450  0.62401950  0.62278150  1
  Li  Li39  1  0.87311450  0.37598050  0.87721850  1
  Li  Li40  1  0.87311450  0.87598050  0.12278150  1
  Li  Li41  1  0.87311450  0.12401950  0.37721850  1
  Li  Li42  1  0.87598050  0.87721850  0.62688550  1
  Li  Li43  1  0.87598050  0.12278150  0.87311450  1
  Li  Li44  1  0.12401950  0.37721850  0.87311450  1
  Li  Li45  1  0.12401950  0.62278150  0.62688550  1
  Li  Li46  1  0.12278150  0.62688550  0.37598050  1
  Li  Li47  1  0.37721850  0.62688550  0.62401950  1
  Cu  Cu48  1  0.87290450  0.12709550  0.62709550  1
  Cu  Cu49  1  0.87290450  0.37290450  0.12709550  1
  Cu  Cu50  1  0.12709550  0.12709550  0.12709550  1
  Cu  Cu51  1  0.12709550  0.87290450  0.37290450  1
  Cu  Cu52  1  0.12709550  0.62709550  0.87290450  1
  Cu  Cu53  1  0.37290450  0.12709550  0.87290450  1
  Cu  Cu54  1  0.37290450  0.37290450  0.37290450  1
  Cu  Cu55  1  0.62709550  0.87290450  0.12709550  1
  Cu  Cu56  1  0.37290450  0.62709550  0.12709550  1
  Cu  Cu57  1  0.37290450  0.87290450  0.62709550  1
  Cu  Cu58  1  0.62709550  0.62709550  0.62709550  1
  Cu  Cu59  1  0.62709550  0.37290450  0.87290450  1
  Cu  Cu60  1  0.62709550  0.12709550  0.37290450  1
  Cu  Cu61  1  0.87290450  0.62709550  0.37290450  1
  Cu  Cu62  1  0.87290450  0.87290450  0.87290450  1
  Cu  Cu63  1  0.12709550  0.37290450  0.62709550  1
  S  S64  1  0.75285800  0.50000000  0.25000000  1
  S  S65  1  0.00000000  0.00000000  0.00000000  1
  S  S66  1  0.00000000  0.50000000  0.00000000  1
  S  S67  1  0.00000000  0.00000000  0.50000000  1
  S  S68  1  0.00000000  0.25000000  0.24714200  1
  S  S69  1  0.00000000  0.25000000  0.74714200  1
  S  S70  1  0.24714200  0.00000000  0.25000000  1
  S  S71  1  0.25000000  0.24714200  0.00000000  1
  S  S72  1  0.25000000  0.75285800  0.50000000  1
  S  S73  1  0.25000000  0.25285800  0.50000000  1
  S  S74  1  0.25000000  0.74714200  0.00000000  1
  S  S75  1  0.25285800  0.50000000  0.25000000  1
  S  S76  1  0.50000000  0.00000000  0.00000000  1
  S  S77  1  0.50000000  0.25000000  0.75285800  1
  S  S78  1  0.50000000  0.25000000  0.25285800  1
  S  S79  1  0.74714200  0.00000000  0.25000000  1
  S  S80  1  0.25285800  0.00000000  0.75000000  1
  S  S81  1  0.50000000  0.50000000  0.50000000  1
  S  S82  1  0.50000000  0.00000000  0.50000000  1
  S  S83  1  0.50000000  0.50000000  0.00000000  1
  S  S84  1  0.50000000  0.75000000  0.74714200  1
  S  S85  1  0.50000000  0.75000000  0.24714200  1
  S  S86  1  0.74714200  0.50000000  0.75000000  1
  S  S87  1  0.75000000  0.74714200  0.50000000  1
  S  S88  1  0.75000000  0.25285800  0.00000000  1
  S  S89  1  0.75000000  0.75285800  0.00000000  1
  S  S90  1  0.75000000  0.24714200  0.50000000  1
  S  S91  1  0.75285800  0.00000000  0.75000000  1
  S  S92  1  0.00000000  0.50000000  0.50000000  1
  S  S93  1  0.00000000  0.75000000  0.25285800  1
  S  S94  1  0.00000000  0.75000000  0.75285800  1
  S  S95  1  0.24714200  0.50000000  0.75000000  1
