# generated using pymatgen
data_Tb3NbO7
_symmetry_space_group_name_H-M   'P 1'
_cell_length_a   7.39101800
_cell_length_b   10.63455000
_cell_length_c   7.57752000
_cell_angle_alpha   90.00000000
_cell_angle_beta   90.00000000
_cell_angle_gamma   90.00000000
_symmetry_Int_Tables_number   1
_chemical_formula_structural   Tb3NbO7
_chemical_formula_sum   'Tb12 Nb4 O28'
_cell_volume   595.59421220
_cell_formula_units_Z   4
loop_
 _symmetry_equiv_pos_site_id
 _symmetry_equiv_pos_as_xyz
  1  'x, y, z'
loop_
 _atom_site_type_symbol
 _atom_site_label
 _atom_site_symmetry_multiplicity
 _atom_site_fract_x
 _atom_site_fract_y
 _atom_site_fract_z
 _atom_site_occupancy
  Tb  Tb0  1  0.28546650  0.22936950  0.25000000  1
  Tb  Tb1  1  0.71453350  0.22936950  0.75000000  1
  Tb  Tb2  1  0.00000000  0.00000000  0.00000000  1
  Tb  Tb3  1  0.00000000  0.00000000  0.50000000  1
  Tb  Tb4  1  0.28546650  0.77063050  0.25000000  1
  Tb  Tb5  1  0.71453350  0.77063050  0.75000000  1
  Tb  Tb6  1  0.78546650  0.72936950  0.25000000  1
  Tb  Tb7  1  0.21453350  0.72936950  0.75000000  1
  Tb  Tb8  1  0.50000000  0.50000000  0.00000000  1
  Tb  Tb9  1  0.50000000  0.50000000  0.50000000  1
  Tb  Tb10  1  0.78546650  0.27063050  0.25000000  1
  Tb  Tb11  1  0.21453350  0.27063050  0.75000000  1
  Nb  Nb12  1  0.50000000  0.00000000  0.00000000  1
  Nb  Nb13  1  0.50000000  0.00000000  0.50000000  1
  Nb  Nb14  1  0.00000000  0.50000000  0.00000000  1
  Nb  Nb15  1  0.00000000  0.50000000  0.50000000  1
  O  O16  1  0.51933400  0.36747600  0.25000000  1
  O  O17  1  0.48066600  0.36747600  0.75000000  1
  O  O18  1  0.30513500  0.12922600  0.53361100  1
  O  O19  1  0.69486500  0.12922600  0.03361100  1
  O  O20  1  0.69486500  0.12922600  0.46638900  1
  O  O21  1  0.30513500  0.12922600  0.96638900  1
  O  O22  1  0.42319200  0.00000000  0.25000000  1
  O  O23  1  0.57680800  0.00000000  0.75000000  1
  O  O24  1  0.30513500  0.87077400  0.53361100  1
  O  O25  1  0.69486500  0.87077400  0.03361100  1
  O  O26  1  0.69486500  0.87077400  0.46638900  1
  O  O27  1  0.30513500  0.87077400  0.96638900  1
  O  O28  1  0.51933400  0.63252400  0.25000000  1
  O  O29  1  0.48066600  0.63252400  0.75000000  1
  O  O30  1  0.01933400  0.86747600  0.25000000  1
  O  O31  1  0.98066600  0.86747600  0.75000000  1
  O  O32  1  0.80513500  0.62922600  0.53361100  1
  O  O33  1  0.19486500  0.62922600  0.03361100  1
  O  O34  1  0.19486500  0.62922600  0.46638900  1
  O  O35  1  0.80513500  0.62922600  0.96638900  1
  O  O36  1  0.92319200  0.50000000  0.25000000  1
  O  O37  1  0.07680800  0.50000000  0.75000000  1
  O  O38  1  0.80513500  0.37077400  0.53361100  1
  O  O39  1  0.19486500  0.37077400  0.03361100  1
  O  O40  1  0.19486500  0.37077400  0.46638900  1
  O  O41  1  0.80513500  0.37077400  0.96638900  1
  O  O42  1  0.01933400  0.13252400  0.25000000  1
  O  O43  1  0.98066600  0.13252400  0.75000000  1
