# generated using pymatgen
data_SrCa2I6
_symmetry_space_group_name_H-M   'P 1'
_cell_length_a   25.10111000
_cell_length_b   7.60823200
_cell_length_c   8.64487319
_cell_angle_alpha   90.00000000
_cell_angle_beta   95.40654123
_cell_angle_gamma   90.00000000
_symmetry_Int_Tables_number   1
_chemical_formula_structural   SrCa2I6
_chemical_formula_sum   'Sr4 Ca8 I24'
_cell_volume   1643.61050179
_cell_formula_units_Z   4
loop_
 _symmetry_equiv_pos_site_id
 _symmetry_equiv_pos_as_xyz
  1  'x, y, z'
loop_
 _atom_site_type_symbol
 _atom_site_label
 _atom_site_symmetry_multiplicity
 _atom_site_fract_x
 _atom_site_fract_y
 _atom_site_fract_z
 _atom_site_occupancy
  Sr  Sr0  1  0.00000000  0.27000800  0.75000000  1
  Sr  Sr1  1  0.00000000  0.72999200  0.25000000  1
  Sr  Sr2  1  0.50000000  0.77000800  0.75000000  1
  Sr  Sr3  1  0.50000000  0.22999200  0.25000000  1
  Ca  Ca4  1  0.67154650  0.27387150  0.62925600  1
  Ca  Ca5  1  0.67154650  0.72612850  0.12925600  1
  Ca  Ca6  1  0.82845350  0.77387150  0.87074400  1
  Ca  Ca7  1  0.82845350  0.22612850  0.37074400  1
  Ca  Ca8  1  0.17154650  0.77387150  0.62925600  1
  Ca  Ca9  1  0.17154650  0.22612850  0.12925600  1
  Ca  Ca10  1  0.32845350  0.27387150  0.87074400  1
  Ca  Ca11  1  0.32845350  0.72612850  0.37074400  1
  I  I12  1  0.56935550  0.05838450  0.57527900  1
  I  I13  1  0.56935550  0.94161550  0.07527900  1
  I  I14  1  0.60510550  0.48853650  0.87087200  1
  I  I15  1  0.60510550  0.51146350  0.37087200  1
  I  I16  1  0.71852600  0.96299700  0.86042800  1
  I  I17  1  0.71852600  0.03700300  0.36042800  1
  I  I18  1  0.78147400  0.46299700  0.63957200  1
  I  I19  1  0.78147400  0.53700300  0.13957200  1
  I  I20  1  0.89489450  0.98853650  0.62912800  1
  I  I21  1  0.89489450  0.01146350  0.12912800  1
  I  I22  1  0.93064450  0.55838450  0.92472100  1
  I  I23  1  0.93064450  0.44161550  0.42472100  1
  I  I24  1  0.06935550  0.55838450  0.57527900  1
  I  I25  1  0.06935550  0.44161550  0.07527900  1
  I  I26  1  0.10510550  0.98853650  0.87087200  1
  I  I27  1  0.10510550  0.01146350  0.37087200  1
  I  I28  1  0.21852600  0.46299700  0.86042800  1
  I  I29  1  0.21852600  0.53700300  0.36042800  1
  I  I30  1  0.28147400  0.96299700  0.63957200  1
  I  I31  1  0.28147400  0.03700300  0.13957200  1
  I  I32  1  0.39489450  0.48853650  0.62912800  1
  I  I33  1  0.39489450  0.51146350  0.12912800  1
  I  I34  1  0.43064450  0.05838450  0.92472100  1
  I  I35  1  0.43064450  0.94161550  0.42472100  1
