# generated using pymatgen
data_GdOF
_symmetry_space_group_name_H-M   'P 1'
_cell_length_a   3.88555574
_cell_length_b   3.88555574
_cell_length_c   19.42661480
_cell_angle_alpha   90.00000000
_cell_angle_beta   90.00000000
_cell_angle_gamma   120.00000000
_symmetry_Int_Tables_number   1
_chemical_formula_structural   GdOF
_chemical_formula_sum   'Gd6 O6 F6'
_cell_volume   254.00019297
_cell_formula_units_Z   6
loop_
 _symmetry_equiv_pos_site_id
 _symmetry_equiv_pos_as_xyz
  1  'x, y, z'
loop_
 _atom_site_type_symbol
 _atom_site_label
 _atom_site_symmetry_multiplicity
 _atom_site_fract_x
 _atom_site_fract_y
 _atom_site_fract_z
 _atom_site_occupancy
  Gd  Gd0  1  0.00000000  0.00000000  0.25910100  1
  Gd  Gd1  1  0.66666667  0.33333333  0.07423233  1
  Gd  Gd2  1  0.66666667  0.33333333  0.59243433  1
  Gd  Gd3  1  0.33333333  0.66666667  0.40756567  1
  Gd  Gd4  1  0.33333333  0.66666667  0.92576767  1
  Gd  Gd5  1  0.00000000  0.00000000  0.74089900  1
  O  O6  1  0.33333333  0.66666667  0.04452667  1
  O  O7  1  0.33333333  0.66666667  0.28880667  1
  O  O8  1  0.00000000  0.00000000  0.37786000  1
  O  O9  1  0.00000000  0.00000000  0.62214000  1
  O  O10  1  0.66666667  0.33333333  0.71119333  1
  O  O11  1  0.66666667  0.33333333  0.95547333  1
  F  F12  1  0.00000000  0.00000000  0.12964900  1
  F  F13  1  0.66666667  0.33333333  0.20368433  1
  F  F14  1  0.66666667  0.33333333  0.46298233  1
  F  F15  1  0.33333333  0.66666667  0.53701767  1
  F  F16  1  0.33333333  0.66666667  0.79631567  1
  F  F17  1  0.00000000  0.00000000  0.87035100  1
