# generated using pymatgen
data_Li3Bi3P8O29
_symmetry_space_group_name_H-M   'P 1'
_cell_length_a   17.46073600
_cell_length_b   10.13624200
_cell_length_c   14.36756196
_cell_angle_alpha   90.00000000
_cell_angle_beta   90.70995238
_cell_angle_gamma   90.00000000
_symmetry_Int_Tables_number   1
_chemical_formula_structural   Li3Bi3P8O29
_chemical_formula_sum   'Li12 Bi12 P32 O116'
_cell_volume   2542.66564089
_cell_formula_units_Z   4
loop_
 _symmetry_equiv_pos_site_id
 _symmetry_equiv_pos_as_xyz
  1  'x, y, z'
loop_
 _atom_site_type_symbol
 _atom_site_label
 _atom_site_symmetry_multiplicity
 _atom_site_fract_x
 _atom_site_fract_y
 _atom_site_fract_z
 _atom_site_occupancy
  Li  Li0  1  0.00000000  0.00000000  0.00000000  1
  Li  Li1  1  0.00000000  0.00000000  0.50000000  1
  Li  Li2  1  0.38305700  0.70427000  0.44616000  1
  Li  Li3  1  0.38305700  0.29573000  0.94616000  1
  Li  Li4  1  0.61694300  0.70427000  0.05384000  1
  Li  Li5  1  0.61694300  0.29573000  0.55384000  1
  Li  Li6  1  0.50000000  0.50000000  0.00000000  1
  Li  Li7  1  0.50000000  0.50000000  0.50000000  1
  Li  Li8  1  0.88305700  0.20427000  0.44616000  1
  Li  Li9  1  0.88305700  0.79573000  0.94616000  1
  Li  Li10  1  0.11694300  0.20427000  0.05384000  1
  Li  Li11  1  0.11694300  0.79573000  0.55384000  1
  Bi  Bi12  1  0.21786800  0.78284500  0.75973700  1
  Bi  Bi13  1  0.78213200  0.21715500  0.24026300  1
  Bi  Bi14  1  0.21786800  0.21715500  0.25973700  1
  Bi  Bi15  1  0.78213200  0.78284500  0.74026300  1
  Bi  Bi16  1  0.50000000  0.93885400  0.75000000  1
  Bi  Bi17  1  0.50000000  0.06114600  0.25000000  1
  Bi  Bi18  1  0.71786800  0.28284500  0.75973700  1
  Bi  Bi19  1  0.28213200  0.71715500  0.24026300  1
  Bi  Bi20  1  0.71786800  0.71715500  0.25973700  1
  Bi  Bi21  1  0.28213200  0.28284500  0.74026300  1
  Bi  Bi22  1  0.00000000  0.43885400  0.75000000  1
  Bi  Bi23  1  0.00000000  0.56114600  0.25000000  1
  P  P24  1  0.14547150  0.93342350  0.15632300  1
  P  P25  1  0.14547150  0.06657650  0.65632300  1
  P  P26  1  0.38700450  0.69668850  0.65539800  1
  P  P27  1  0.33423700  0.99534000  0.37684500  1
  P  P28  1  0.33423700  0.00466000  0.87684500  1
  P  P29  1  0.46146850  0.75851750  0.15298500  1
  P  P30  1  0.53853150  0.75851750  0.34701500  1
  P  P31  1  0.38700450  0.30331150  0.15539800  1
  P  P32  1  0.61299550  0.69668850  0.84460200  1
  P  P33  1  0.46146850  0.24148250  0.65298500  1
  P  P34  1  0.53853150  0.24148250  0.84701500  1
  P  P35  1  0.66576300  0.00466000  0.62315500  1
  P  P36  1  0.66576300  0.99534000  0.12315500  1
  P  P37  1  0.61299550  0.30331150  0.34460200  1
  P  P38  1  0.85452850  0.93342350  0.34367700  1
  P  P39  1  0.85452850  0.06657650  0.84367700  1
  P  P40  1  0.64547150  0.43342350  0.15632300  1
  P  P41  1  0.64547150  0.56657650  0.65632300  1
  P  P42  1  0.88700450  0.19668850  0.65539800  1
  P  P43  1  0.83423700  0.49534000  0.37684500  1
  P  P44  1  0.83423700  0.50466000  0.87684500  1
  P  P45  1  0.96146850  0.25851750  0.15298500  1
  P  P46  1  0.03853150  0.25851750  0.34701500  1
  P  P47  1  0.88700450  0.80331150  0.15539800  1
  P  P48  1  0.11299550  0.19668850  0.84460200  1
  P  P49  1  0.96146850  0.74148250  0.65298500  1
  P  P50  1  0.03853150  0.74148250  0.84701500  1
  P  P51  1  0.16576300  0.50466000  0.62315500  1
  P  P52  1  0.16576300  0.49534000  0.12315500  1
  P  P53  1  0.11299550  0.80331150  0.34460200  1
  P  P54  1  0.35452850  0.43342350  0.34367700  1
  P  P55  1  0.35452850  0.56657650  0.84367700  1
  O  O56  1  0.10953100  0.90130800  0.25683400  1
  O  O57  1  0.60907700  0.38258400  0.43268800  1
  O  O58  1  0.16066100  0.91400100  0.65767600  1
  O  O59  1  0.10953100  0.09869200  0.75683400  1
  O  O60  1  0.60907700  0.61741600  0.93268800  1
  O  O61  1  0.16066100  0.08599900  0.15767600  1
  O  O62  1  0.22405050  0.86128850  0.15018800  1
  O  O63  1  0.25425700  0.95362500  0.84013800  1
  O  O64  1  0.31407550  0.78314250  0.66289600  1
  O  O65  1  0.41138000  0.59344600  0.91941400  1
  O  O66  1  0.89046900  0.09869200  0.74316600  1
  O  O67  1  0.38014750  0.69627450  0.14886300  1
  O  O68  1  0.25425700  0.04637500  0.34013800  1
  O  O69  1  0.22405050  0.13871150  0.65018800  1
  O  O70  1  0.34429000  0.84830700  0.33995000  1
  O  O71  1  0.33894200  0.98887700  0.48072500  1
  O  O72  1  0.33894200  0.01112300  0.98072500  1
  O  O73  1  0.39614350  0.91417950  0.83107300  1
  O  O74  1  0.31407550  0.21685750  0.16289600  1
  O  O75  1  0.34429000  0.15169300  0.83995000  1
  O  O76  1  0.45997450  0.78485750  0.65875900  1
  O  O77  1  0.50000000  0.71242100  0.25000000  1
  O  O78  1  0.49140550  0.70268250  0.42361100  1
  O  O79  1  0.50859450  0.70268250  0.07638900  1
  O  O80  1  0.45331200  0.91140300  0.15552000  1
  O  O81  1  0.39614350  0.08582050  0.33107300  1
  O  O82  1  0.54002550  0.78485750  0.84124100  1
  O  O83  1  0.45331200  0.08859700  0.65552000  1
  O  O84  1  0.38014750  0.30372550  0.64886300  1
  O  O85  1  0.58862000  0.59344600  0.58058600  1
  O  O86  1  0.41138000  0.40655400  0.41941400  1
  O  O87  1  0.89046900  0.90130800  0.24316600  1
  O  O88  1  0.61985250  0.69627450  0.35113700  1
  O  O89  1  0.54668800  0.91140300  0.34448000  1
  O  O90  1  0.45997450  0.21514250  0.15875900  1
  O  O91  1  0.60385650  0.91417950  0.66892700  1
  O  O92  1  0.54668800  0.08859700  0.84448000  1
  O  O93  1  0.49140550  0.29731750  0.92361100  1
  O  O94  1  0.50859450  0.29731750  0.57638900  1
  O  O95  1  0.50000000  0.28757900  0.75000000  1
  O  O96  1  0.54002550  0.21514250  0.34124100  1
  O  O97  1  0.65571000  0.84830700  0.16005000  1
  O  O98  1  0.68592450  0.78314250  0.83710400  1
  O  O99  1  0.60385650  0.08582050  0.16892700  1
  O  O100  1  0.66105800  0.01112300  0.51927500  1
  O  O101  1  0.66105800  0.98887700  0.01927500  1
  O  O102  1  0.65571000  0.15169300  0.66005000  1
  O  O103  1  0.77594950  0.86128850  0.34981200  1
  O  O104  1  0.74574300  0.95362500  0.65986200  1
  O  O105  1  0.61985250  0.30372550  0.85113700  1
  O  O106  1  0.58862000  0.40655400  0.08058600  1
  O  O107  1  0.68592450  0.21685750  0.33710400  1
  O  O108  1  0.74574300  0.04637500  0.15986200  1
  O  O109  1  0.77594950  0.13871150  0.84981200  1
  O  O110  1  0.83933900  0.91400100  0.84232400  1
  O  O111  1  0.39092300  0.38258400  0.06731200  1
  O  O112  1  0.83933900  0.08599900  0.34232400  1
  O  O113  1  0.39092300  0.61741600  0.56731200  1
  O  O114  1  0.60953100  0.40130800  0.25683400  1
  O  O115  1  0.10907700  0.88258400  0.43268800  1
  O  O116  1  0.66066100  0.41400100  0.65767600  1
  O  O117  1  0.60953100  0.59869200  0.75683400  1
  O  O118  1  0.10907700  0.11741600  0.93268800  1
  O  O119  1  0.66066100  0.58599900  0.15767600  1
  O  O120  1  0.72405050  0.36128850  0.15018800  1
  O  O121  1  0.75425700  0.45362500  0.84013800  1
  O  O122  1  0.81407550  0.28314250  0.66289600  1
  O  O123  1  0.91138000  0.09344600  0.91941400  1
  O  O124  1  0.39046900  0.59869200  0.74316600  1
  O  O125  1  0.88014750  0.19627450  0.14886300  1
  O  O126  1  0.75425700  0.54637500  0.34013800  1
  O  O127  1  0.72405050  0.63871150  0.65018800  1
  O  O128  1  0.84429000  0.34830700  0.33995000  1
  O  O129  1  0.83894200  0.48887700  0.48072500  1
  O  O130  1  0.83894200  0.51112300  0.98072500  1
  O  O131  1  0.89614350  0.41417950  0.83107300  1
  O  O132  1  0.81407550  0.71685750  0.16289600  1
  O  O133  1  0.84429000  0.65169300  0.83995000  1
  O  O134  1  0.95997450  0.28485750  0.65875900  1
  O  O135  1  0.00000000  0.21242100  0.25000000  1
  O  O136  1  0.99140550  0.20268250  0.42361100  1
  O  O137  1  0.00859450  0.20268250  0.07638900  1
  O  O138  1  0.95331200  0.41140300  0.15552000  1
  O  O139  1  0.89614350  0.58582050  0.33107300  1
  O  O140  1  0.04002550  0.28485750  0.84124100  1
  O  O141  1  0.95331200  0.58859700  0.65552000  1
  O  O142  1  0.88014750  0.80372550  0.64886300  1
  O  O143  1  0.08862000  0.09344600  0.58058600  1
  O  O144  1  0.91138000  0.90655400  0.41941400  1
  O  O145  1  0.39046900  0.40130800  0.24316600  1
  O  O146  1  0.11985250  0.19627450  0.35113700  1
  O  O147  1  0.04668800  0.41140300  0.34448000  1
  O  O148  1  0.95997450  0.71514250  0.15875900  1
  O  O149  1  0.10385650  0.41417950  0.66892700  1
  O  O150  1  0.04668800  0.58859700  0.84448000  1
  O  O151  1  0.99140550  0.79731750  0.92361100  1
  O  O152  1  0.00859450  0.79731750  0.57638900  1
  O  O153  1  0.00000000  0.78757900  0.75000000  1
  O  O154  1  0.04002550  0.71514250  0.34124100  1
  O  O155  1  0.15571000  0.34830700  0.16005000  1
  O  O156  1  0.18592450  0.28314250  0.83710400  1
  O  O157  1  0.10385650  0.58582050  0.16892700  1
  O  O158  1  0.16105800  0.51112300  0.51927500  1
  O  O159  1  0.16105800  0.48887700  0.01927500  1
  O  O160  1  0.15571000  0.65169300  0.66005000  1
  O  O161  1  0.27594950  0.36128850  0.34981200  1
  O  O162  1  0.24574300  0.45362500  0.65986200  1
  O  O163  1  0.11985250  0.80372550  0.85113700  1
  O  O164  1  0.08862000  0.90655400  0.08058600  1
  O  O165  1  0.18592450  0.71685750  0.33710400  1
  O  O166  1  0.24574300  0.54637500  0.15986200  1
  O  O167  1  0.27594950  0.63871150  0.84981200  1
  O  O168  1  0.33933900  0.41400100  0.84232400  1
  O  O169  1  0.89092300  0.88258400  0.06731200  1
  O  O170  1  0.33933900  0.58599900  0.34232400  1
  O  O171  1  0.89092300  0.11741600  0.56731200  1
