# generated using pymatgen
data_SrTaNO2
_symmetry_space_group_name_H-M   'P 1'
_cell_length_a   11.54899600
_cell_length_b   8.09618600
_cell_length_c   5.80719287
_cell_angle_alpha   90.00000000
_cell_angle_beta   90.04602651
_cell_angle_gamma   90.00000000
_symmetry_Int_Tables_number   1
_chemical_formula_structural   SrTaNO2
_chemical_formula_sum   'Sr8 Ta8 N8 O16'
_cell_volume   542.98873321
_cell_formula_units_Z   8
loop_
 _symmetry_equiv_pos_site_id
 _symmetry_equiv_pos_as_xyz
  1  'x, y, z'
loop_
 _atom_site_type_symbol
 _atom_site_label
 _atom_site_symmetry_multiplicity
 _atom_site_fract_x
 _atom_site_fract_y
 _atom_site_fract_z
 _atom_site_occupancy
  Sr  Sr0  1  0.50000000  0.75256300  0.00000000  1
  Sr  Sr1  1  0.50000000  0.24743700  0.00000000  1
  Sr  Sr2  1  0.75000000  0.25000000  0.50000000  1
  Sr  Sr3  1  0.75000000  0.75000000  0.50000000  1
  Sr  Sr4  1  0.00000000  0.25256300  0.00000000  1
  Sr  Sr5  1  0.00000000  0.74743700  0.00000000  1
  Sr  Sr6  1  0.25000000  0.75000000  0.50000000  1
  Sr  Sr7  1  0.25000000  0.25000000  0.50000000  1
  Ta  Ta8  1  0.24842900  0.00000000  0.02685000  1
  Ta  Ta9  1  0.75157100  0.00000000  0.97315000  1
  Ta  Ta10  1  0.00000000  0.00000000  0.50000000  1
  Ta  Ta11  1  0.50000000  0.00000000  0.50000000  1
  Ta  Ta12  1  0.74842900  0.50000000  0.02685000  1
  Ta  Ta13  1  0.25157100  0.50000000  0.97315000  1
  Ta  Ta14  1  0.50000000  0.50000000  0.50000000  1
  Ta  Ta15  1  0.00000000  0.50000000  0.50000000  1
  N  N16  1  0.36726100  0.00000000  0.26545700  1
  N  N17  1  0.11290700  0.00000000  0.22680200  1
  N  N18  1  0.88709300  0.00000000  0.77319800  1
  N  N19  1  0.63273900  0.00000000  0.73454300  1
  N  N20  1  0.86726100  0.50000000  0.26545700  1
  N  N21  1  0.61290700  0.50000000  0.22680200  1
  N  N22  1  0.38709300  0.50000000  0.77319800  1
  N  N23  1  0.13273900  0.50000000  0.73454300  1
  O  O24  1  0.86318000  0.00000000  0.28094000  1
  O  O25  1  0.61568000  0.00000000  0.23815500  1
  O  O26  1  0.75000000  0.75000000  0.00000000  1
  O  O27  1  0.75000000  0.25000000  0.00000000  1
  O  O28  1  0.38432000  0.00000000  0.76184500  1
  O  O29  1  0.13682000  0.00000000  0.71906000  1
  O  O30  1  0.50000000  0.25016200  0.50000000  1
  O  O31  1  0.50000000  0.74983800  0.50000000  1
  O  O32  1  0.36318000  0.50000000  0.28094000  1
  O  O33  1  0.11568000  0.50000000  0.23815500  1
  O  O34  1  0.25000000  0.25000000  0.00000000  1
  O  O35  1  0.25000000  0.75000000  0.00000000  1
  O  O36  1  0.88432000  0.50000000  0.76184500  1
  O  O37  1  0.63682000  0.50000000  0.71906000  1
  O  O38  1  0.00000000  0.75016200  0.50000000  1
  O  O39  1  0.00000000  0.24983800  0.50000000  1
