# generated using pymatgen
data_ZnH10C4N6(ClO2)2
_symmetry_space_group_name_H-M   'P 1'
_cell_length_a   8.15043600
_cell_length_b   7.36645500
_cell_length_c   11.70835040
_cell_angle_alpha   90.00000000
_cell_angle_beta   124.81239399
_cell_angle_gamma   90.00000000
_symmetry_Int_Tables_number   1
_chemical_formula_structural   ZnH10C4N6(ClO2)2
_chemical_formula_sum   'Zn2 H20 C8 N12 Cl4 O8'
_cell_volume   577.15420420
_cell_formula_units_Z   2
loop_
 _symmetry_equiv_pos_site_id
 _symmetry_equiv_pos_as_xyz
  1  'x, y, z'
loop_
 _atom_site_type_symbol
 _atom_site_label
 _atom_site_symmetry_multiplicity
 _atom_site_fract_x
 _atom_site_fract_y
 _atom_site_fract_z
 _atom_site_occupancy
  Zn  Zn0  1  0.00000000  0.50000000  0.50000000  1
  Zn  Zn1  1  0.00000000  0.00000000  0.00000000  1
  H  H2  1  0.66782600  0.85278600  0.19893900  1
  H  H3  1  0.33217400  0.35278600  0.30106100  1
  H  H4  1  0.33217400  0.14721400  0.80106100  1
  H  H5  1  0.66782600  0.64721400  0.69893900  1
  H  H6  1  0.59996900  0.07170000  0.20970100  1
  H  H7  1  0.40003100  0.57170000  0.29029900  1
  H  H8  1  0.40003100  0.92830000  0.79029900  1
  H  H9  1  0.59996900  0.42830000  0.70970100  1
  H  H10  1  0.88338200  0.59809900  0.01856000  1
  H  H11  1  0.11661800  0.09809900  0.48144000  1
  H  H12  1  0.11661800  0.40190100  0.98144000  1
  H  H13  1  0.88338200  0.90190100  0.51856000  1
  H  H14  1  0.76243500  0.57194300  0.10356300  1
  H  H15  1  0.23756500  0.07194300  0.39643700  1
  H  H16  1  0.23756500  0.42805700  0.89643700  1
  H  H17  1  0.76243500  0.92805700  0.60356300  1
  H  H18  1  0.70072200  0.31045400  0.15014500  1
  H  H19  1  0.29927800  0.81045400  0.34985500  1
  H  H20  1  0.29927800  0.68954600  0.84985500  1
  H  H21  1  0.70072200  0.18954600  0.65014500  1
  C  C22  1  0.76568800  0.04734500  0.12523700  1
  C  C23  1  0.23431200  0.54734500  0.37476300  1
  C  C24  1  0.23431200  0.95265500  0.87476300  1
  C  C25  1  0.76568800  0.45265500  0.62523700  1
  C  C26  1  0.83934200  0.33656400  0.05048300  1
  C  C27  1  0.16065800  0.83656400  0.44951700  1
  C  C28  1  0.16065800  0.66343600  0.94951700  1
  C  C29  1  0.83934200  0.16343600  0.55048300  1
  N  N30  1  0.76055200  0.23467200  0.10809800  1
  N  N31  1  0.23944800  0.73467200  0.39190200  1
  N  N32  1  0.23944800  0.76532800  0.89190200  1
  N  N33  1  0.76055200  0.26532800  0.60809800  1
  N  N34  1  0.67176100  0.98885500  0.18210900  1
  N  N35  1  0.32823900  0.48885500  0.31789100  1
  N  N36  1  0.32823900  0.01114500  0.81789100  1
  N  N37  1  0.67176100  0.51114500  0.68210900  1
  N  N38  1  0.81939300  0.51600600  0.05336900  1
  N  N39  1  0.18060700  0.01600600  0.44663100  1
  N  N40  1  0.18060700  0.48399400  0.94663100  1
  N  N41  1  0.81939300  0.98399400  0.55336900  1
  Cl  Cl42  1  0.67116600  0.55478600  0.25848900  1
  Cl  Cl43  1  0.32883400  0.05478600  0.24151100  1
  Cl  Cl44  1  0.32883400  0.44521400  0.74151100  1
  Cl  Cl45  1  0.67116600  0.94521400  0.75848900  1
  O  O46  1  0.84984800  0.93812200  0.09135800  1
  O  O47  1  0.15015200  0.43812200  0.40864200  1
  O  O48  1  0.15015200  0.06187800  0.90864200  1
  O  O49  1  0.84984800  0.56187800  0.59135800  1
  O  O50  1  0.92250300  0.26822100  0.99645700  1
  O  O51  1  0.07749700  0.76822100  0.50354300  1
  O  O52  1  0.07749700  0.73177900  0.00354300  1
  O  O53  1  0.92250300  0.23177900  0.49645700  1
