# generated using pymatgen
data_TiFe(PO4)2
_symmetry_space_group_name_H-M   'P 1'
_cell_length_a   4.98888143
_cell_length_b   6.03003600
_cell_length_c   9.99894355
_cell_angle_alpha   90.00000000
_cell_angle_beta   90.40843644
_cell_angle_gamma   90.00000000
_symmetry_Int_Tables_number   1
_chemical_formula_structural   TiFe(PO4)2
_chemical_formula_sum   'Ti2 Fe2 P4 O16'
_cell_volume   300.79192262
_cell_formula_units_Z   2
loop_
 _symmetry_equiv_pos_site_id
 _symmetry_equiv_pos_as_xyz
  1  'x, y, z'
loop_
 _atom_site_type_symbol
 _atom_site_label
 _atom_site_symmetry_multiplicity
 _atom_site_fract_x
 _atom_site_fract_y
 _atom_site_fract_z
 _atom_site_occupancy
  Ti  Ti0  1  0.46714250  0.25000000  0.77648125  1
  Ti  Ti1  1  0.53285750  0.75000000  0.22351875  1
  Fe  Fe2  1  0.97102250  0.75000000  0.72867775  1
  Fe  Fe3  1  0.02897750  0.25000000  0.27132225  1
  P  P4  1  0.44381250  0.75000000  0.90263625  1
  P  P5  1  0.55618750  0.25000000  0.09736375  1
  P  P6  1  0.88751350  0.25000000  0.60294925  1
  P  P7  1  0.11248650  0.75000000  0.39705075  1
  O  O8  1  0.63967450  0.25000000  0.94695075  1
  O  O9  1  0.36032550  0.75000000  0.05304925  1
  O  O10  1  0.74550150  0.75000000  0.89261775  1
  O  O11  1  0.25449850  0.25000000  0.10738225  1
  O  O12  1  0.18565350  0.25000000  0.64753425  1
  O  O13  1  0.81434650  0.75000000  0.35246575  1
  O  O14  1  0.13791550  0.75000000  0.54675175  1
  O  O15  1  0.86208450  0.25000000  0.45324825  1
  O  O16  1  0.30590950  0.95395000  0.83119825  1
  O  O17  1  0.30590950  0.54605000  0.83119825  1
  O  O18  1  0.69409050  0.45395000  0.16880175  1
  O  O19  1  0.69409050  0.04605000  0.16880175  1
  O  O20  1  0.73251750  0.05500350  0.67369575  1
  O  O21  1  0.73251750  0.44499650  0.67369575  1
  O  O22  1  0.26748250  0.94499650  0.32630425  1
  O  O23  1  0.26748250  0.55500350  0.32630425  1
