# generated using pymatgen
data_Rb2FeH2Cl5O
_symmetry_space_group_name_H-M   'P 1'
_cell_length_a   7.20839400
_cell_length_b   10.01856900
_cell_length_c   14.05443900
_cell_angle_alpha   90.00000000
_cell_angle_beta   90.00000000
_cell_angle_gamma   90.00000000
_symmetry_Int_Tables_number   1
_chemical_formula_structural   Rb2FeH2Cl5O
_chemical_formula_sum   'Rb8 Fe4 H8 Cl20 O4'
_cell_volume   1014.98056177
_cell_formula_units_Z   4
loop_
 _symmetry_equiv_pos_site_id
 _symmetry_equiv_pos_as_xyz
  1  'x, y, z'
loop_
 _atom_site_type_symbol
 _atom_site_label
 _atom_site_symmetry_multiplicity
 _atom_site_fract_x
 _atom_site_fract_y
 _atom_site_fract_z
 _atom_site_occupancy
  Rb  Rb0  1  0.34451300  0.50009600  0.14342200  1
  Rb  Rb1  1  0.15548700  0.99990400  0.64342200  1
  Rb  Rb2  1  0.65548700  0.00009600  0.85657800  1
  Rb  Rb3  1  0.84451300  0.49990400  0.35657800  1
  Rb  Rb4  1  0.65548700  0.49990400  0.85657800  1
  Rb  Rb5  1  0.84451300  0.00009600  0.35657800  1
  Rb  Rb6  1  0.34451300  0.99990400  0.14342200  1
  Rb  Rb7  1  0.15548700  0.50009600  0.64342200  1
  Fe  Fe8  1  0.30933600  0.25000000  0.38540900  1
  Fe  Fe9  1  0.19066400  0.25000000  0.88540900  1
  Fe  Fe10  1  0.69066400  0.75000000  0.61459100  1
  Fe  Fe11  1  0.80933600  0.75000000  0.11459100  1
  H  H12  1  0.54713100  0.33029700  0.53538900  1
  H  H13  1  0.95286900  0.16970300  0.03538900  1
  H  H14  1  0.45286900  0.83029700  0.46461100  1
  H  H15  1  0.04713100  0.66970300  0.96461100  1
  H  H16  1  0.45286900  0.66970300  0.46461100  1
  H  H17  1  0.04713100  0.83029700  0.96461100  1
  H  H18  1  0.54713100  0.16970300  0.53538900  1
  H  H19  1  0.95286900  0.33029700  0.03538900  1
  Cl  Cl20  1  0.10174400  0.25000000  0.25442300  1
  Cl  Cl21  1  0.39825600  0.25000000  0.75442300  1
  Cl  Cl22  1  0.89825600  0.75000000  0.74557700  1
  Cl  Cl23  1  0.60174400  0.75000000  0.24557700  1
  Cl  Cl24  1  0.56913300  0.25000000  0.27930900  1
  Cl  Cl25  1  0.93086700  0.25000000  0.77930900  1
  Cl  Cl26  1  0.43086700  0.75000000  0.72069100  1
  Cl  Cl27  1  0.06913300  0.75000000  0.22069100  1
  Cl  Cl28  1  0.04685800  0.25000000  0.49347200  1
  Cl  Cl29  1  0.45314200  0.25000000  0.99347200  1
  Cl  Cl30  1  0.95314200  0.75000000  0.50652800  1
  Cl  Cl31  1  0.54685800  0.75000000  0.00652800  1
  Cl  Cl32  1  0.32361000  0.49104700  0.39630300  1
  Cl  Cl33  1  0.17639000  0.00895300  0.89630300  1
  Cl  Cl34  1  0.67639000  0.99104700  0.60369700  1
  Cl  Cl35  1  0.82361000  0.50895300  0.10369700  1
  Cl  Cl36  1  0.67639000  0.50895300  0.60369700  1
  Cl  Cl37  1  0.82361000  0.99104700  0.10369700  1
  Cl  Cl38  1  0.32361000  0.00895300  0.39630300  1
  Cl  Cl39  1  0.17639000  0.49104700  0.89630300  1
  O  O40  1  0.49370200  0.25000000  0.50497100  1
  O  O41  1  0.00629800  0.25000000  0.00497100  1
  O  O42  1  0.50629800  0.75000000  0.49502900  1
  O  O43  1  0.99370200  0.75000000  0.99502900  1
