# generated using pymatgen
data_Li3AlCoO4
_symmetry_space_group_name_H-M   'P 1'
_cell_length_a   10.60718600
_cell_length_b   10.60718600
_cell_length_c   13.57509200
_cell_angle_alpha   90.00000000
_cell_angle_beta   90.00000000
_cell_angle_gamma   90.00000000
_symmetry_Int_Tables_number   1
_chemical_formula_structural   Li3AlCoO4
_chemical_formula_sum   'Li48 Al16 Co16 O64'
_cell_volume   1527.36611107
_cell_formula_units_Z   16
loop_
 _symmetry_equiv_pos_site_id
 _symmetry_equiv_pos_as_xyz
  1  'x, y, z'
loop_
 _atom_site_type_symbol
 _atom_site_label
 _atom_site_symmetry_multiplicity
 _atom_site_fract_x
 _atom_site_fract_y
 _atom_site_fract_z
 _atom_site_occupancy
  Li  Li0  1  0.66780050  0.48653650  0.43979050  1
  Li  Li1  1  0.83219950  0.51346350  0.31020950  1
  Li  Li2  1  0.98653650  0.83219950  0.06020950  1
  Li  Li3  1  0.98653650  0.33219950  0.18979050  1
  Li  Li4  1  0.99336350  0.14228550  0.30123350  1
  Li  Li5  1  0.99716900  0.14940400  0.57017200  1
  Li  Li6  1  0.01346350  0.66780050  0.18979050  1
  Li  Li7  1  0.01346350  0.16780050  0.06020950  1
  Li  Li8  1  0.14228550  0.00663650  0.69876650  1
  Li  Li9  1  0.14940400  0.00283100  0.42982800  1
  Li  Li10  1  0.16780050  0.48653650  0.31020950  1
  Li  Li11  1  0.33219950  0.51346350  0.43979050  1
  Li  Li12  1  0.35059600  0.49716900  0.92982800  1
  Li  Li13  1  0.35059600  0.99716900  0.32017200  1
  Li  Li14  1  0.35771450  0.99336350  0.05123350  1
  Li  Li15  1  0.35771450  0.49336350  0.19876650  1
  Li  Li16  1  0.50283100  0.85059600  0.17982800  1
  Li  Li17  1  0.50283100  0.35059600  0.07017200  1
  Li  Li18  1  0.49336350  0.14228550  0.44876650  1
  Li  Li19  1  0.50663650  0.35771450  0.80123350  1
  Li  Li20  1  0.50663650  0.85771450  0.44876650  1
  Li  Li21  1  0.49716900  0.14940400  0.17982800  1
  Li  Li22  1  0.64228550  0.00663650  0.05123350  1
  Li  Li23  1  0.64940400  0.00283100  0.32017200  1
  Li  Li24  1  0.16780050  0.98653650  0.93979050  1
  Li  Li25  1  0.33219950  0.01346350  0.81020950  1
  Li  Li26  1  0.48653650  0.33219950  0.56020950  1
  Li  Li27  1  0.48653650  0.83219950  0.68979050  1
  Li  Li28  1  0.49336350  0.64228550  0.80123350  1
  Li  Li29  1  0.49716900  0.64940400  0.07017200  1
  Li  Li30  1  0.51346350  0.16780050  0.68979050  1
  Li  Li31  1  0.51346350  0.66780050  0.56020950  1
  Li  Li32  1  0.64228550  0.50663650  0.19876650  1
  Li  Li33  1  0.64940400  0.50283100  0.92982800  1
  Li  Li34  1  0.66780050  0.98653650  0.81020950  1
  Li  Li35  1  0.83219950  0.01346350  0.93979050  1
  Li  Li36  1  0.85059600  0.99716900  0.42982800  1
  Li  Li37  1  0.85059600  0.49716900  0.82017200  1
  Li  Li38  1  0.85771450  0.49336350  0.55123350  1
  Li  Li39  1  0.85771450  0.99336350  0.69876650  1
  Li  Li40  1  0.00283100  0.35059600  0.67982800  1
  Li  Li41  1  0.00283100  0.85059600  0.57017200  1
  Li  Li42  1  0.99336350  0.64228550  0.94876650  1
  Li  Li43  1  0.00663650  0.85771450  0.30123350  1
  Li  Li44  1  0.00663650  0.35771450  0.94876650  1
  Li  Li45  1  0.99716900  0.64940400  0.67982800  1
  Li  Li46  1  0.14228550  0.50663650  0.55123350  1
  Li  Li47  1  0.14940400  0.50283100  0.82017200  1
  Al  Al48  1  0.98305100  0.31918800  0.43116600  1
  Al  Al49  1  0.18081200  0.48305100  0.06883400  1
  Al  Al50  1  0.18081200  0.98305100  0.18116600  1
  Al  Al51  1  0.31918800  0.01694900  0.56883400  1
  Al  Al52  1  0.48305100  0.31918800  0.31883400  1
  Al  Al53  1  0.01694900  0.18081200  0.81883400  1
  Al  Al54  1  0.51694900  0.18081200  0.93116600  1
  Al  Al55  1  0.31918800  0.51694900  0.68116600  1
  Al  Al56  1  0.48305100  0.81918800  0.93116600  1
  Al  Al57  1  0.68081200  0.98305100  0.56883400  1
  Al  Al58  1  0.68081200  0.48305100  0.68116600  1
  Al  Al59  1  0.81918800  0.51694900  0.06883400  1
  Al  Al60  1  0.98305100  0.81918800  0.81883400  1
  Al  Al61  1  0.51694900  0.68081200  0.31883400  1
  Al  Al62  1  0.01694900  0.68081200  0.43116600  1
  Al  Al63  1  0.81918800  0.01694900  0.18116600  1
  Co  Co64  1  0.73689700  0.26152100  0.18867000  1
  Co  Co65  1  0.23847900  0.73689700  0.93867000  1
  Co  Co66  1  0.23847900  0.23689700  0.31133000  1
  Co  Co67  1  0.23689700  0.26152100  0.56133000  1
  Co  Co68  1  0.26310300  0.23847900  0.06133000  1
  Co  Co69  1  0.26152100  0.26310300  0.81133000  1
  Co  Co70  1  0.26152100  0.76310300  0.43867000  1
  Co  Co71  1  0.76310300  0.23847900  0.68867000  1
  Co  Co72  1  0.23689700  0.76152100  0.68867000  1
  Co  Co73  1  0.73847900  0.23689700  0.43867000  1
  Co  Co74  1  0.73847900  0.73689700  0.81133000  1
  Co  Co75  1  0.73689700  0.76152100  0.06133000  1
  Co  Co76  1  0.76310300  0.73847900  0.56133000  1
  Co  Co77  1  0.76152100  0.76310300  0.31133000  1
  Co  Co78  1  0.76152100  0.26310300  0.93867000  1
  Co  Co79  1  0.26310300  0.73847900  0.18867000  1
  O  O80  1  0.83923400  0.40506600  0.42786200  1
  O  O81  1  0.90506600  0.16076600  0.17786200  1
  O  O82  1  0.91545100  0.16399800  0.43691200  1
  O  O83  1  0.93507000  0.15832400  0.70571800  1
  O  O84  1  0.06493000  0.34167600  0.54428200  1
  O  O85  1  0.07355000  0.32393100  0.32112600  1
  O  O86  1  0.09493400  0.33923400  0.07213800  1
  O  O87  1  0.15832400  0.06493000  0.29428200  1
  O  O88  1  0.15832400  0.56493000  0.95571800  1
  O  O89  1  0.16076600  0.09493400  0.82213800  1
  O  O90  1  0.17606900  0.07355000  0.07112600  1
  O  O91  1  0.17606900  0.57355000  0.17887400  1
  O  O92  1  0.16399800  0.08454900  0.56308800  1
  O  O93  1  0.33600200  0.91545100  0.18691200  1
  O  O94  1  0.33600200  0.41545100  0.06308800  1
  O  O95  1  0.82393100  0.42645000  0.17887400  1
  O  O96  1  0.33923400  0.40506600  0.32213800  1
  O  O97  1  0.34167600  0.43507000  0.79428200  1
  O  O98  1  0.34167600  0.93507000  0.45571800  1
  O  O99  1  0.40506600  0.16076600  0.57213800  1
  O  O100  1  0.41545100  0.16399800  0.31308800  1
  O  O101  1  0.42645000  0.67606900  0.42887400  1
  O  O102  1  0.92645000  0.67606900  0.32112600  1
  O  O103  1  0.43507000  0.15832400  0.04428200  1
  O  O104  1  0.56493000  0.34167600  0.20571800  1
  O  O105  1  0.07355000  0.82393100  0.92887400  1
  O  O106  1  0.58454900  0.83600200  0.31308800  1
  O  O107  1  0.58454900  0.33600200  0.93691200  1
  O  O108  1  0.59493400  0.33923400  0.67786200  1
  O  O109  1  0.66076600  0.09493400  0.92786200  1
  O  O110  1  0.66399800  0.08454900  0.18691200  1
  O  O111  1  0.32393100  0.42645000  0.57112600  1
  O  O112  1  0.33923400  0.90506600  0.92786200  1
  O  O113  1  0.40506600  0.66076600  0.67786200  1
  O  O114  1  0.41545100  0.66399800  0.93691200  1
  O  O115  1  0.43507000  0.65832400  0.20571800  1
  O  O116  1  0.56493000  0.84167600  0.04428200  1
  O  O117  1  0.57355000  0.82393100  0.82112600  1
  O  O118  1  0.59493400  0.83923400  0.57213800  1
  O  O119  1  0.65832400  0.56493000  0.79428200  1
  O  O120  1  0.65832400  0.06493000  0.45571800  1
  O  O121  1  0.66076600  0.59493400  0.32213800  1
  O  O122  1  0.67606900  0.57355000  0.57112600  1
  O  O123  1  0.67606900  0.07355000  0.67887400  1
  O  O124  1  0.66399800  0.58454900  0.06308800  1
  O  O125  1  0.83600200  0.41545100  0.68691200  1
  O  O126  1  0.83600200  0.91545100  0.56308800  1
  O  O127  1  0.32393100  0.92645000  0.67887400  1
  O  O128  1  0.83923400  0.90506600  0.82213800  1
  O  O129  1  0.84167600  0.93507000  0.29428200  1
  O  O130  1  0.84167600  0.43507000  0.95571800  1
  O  O131  1  0.90506600  0.66076600  0.07213800  1
  O  O132  1  0.91545100  0.66399800  0.81308800  1
  O  O133  1  0.92645000  0.17606900  0.92887400  1
  O  O134  1  0.42645000  0.17606900  0.82112600  1
  O  O135  1  0.93507000  0.65832400  0.54428200  1
  O  O136  1  0.06493000  0.84167600  0.70571800  1
  O  O137  1  0.57355000  0.32393100  0.42887400  1
  O  O138  1  0.08454900  0.33600200  0.81308800  1
  O  O139  1  0.08454900  0.83600200  0.43691200  1
  O  O140  1  0.09493400  0.83923400  0.17786200  1
  O  O141  1  0.16076600  0.59493400  0.42786200  1
  O  O142  1  0.16399800  0.58454900  0.68691200  1
  O  O143  1  0.82393100  0.92645000  0.07112600  1
