# generated using pymatgen
data_CaTm2O4
_symmetry_space_group_name_H-M   'P 1'
_cell_length_a   3.27534600
_cell_length_b   10.89400800
_cell_length_c   10.84274900
_cell_angle_alpha   90.00000000
_cell_angle_beta   90.00000000
_cell_angle_gamma   90.00000000
_symmetry_Int_Tables_number   1
_chemical_formula_structural   CaTm2O4
_chemical_formula_sum   'Ca4 Tm8 O16'
_cell_volume   386.88712635
_cell_formula_units_Z   4
loop_
 _symmetry_equiv_pos_site_id
 _symmetry_equiv_pos_as_xyz
  1  'x, y, z'
loop_
 _atom_site_type_symbol
 _atom_site_label
 _atom_site_symmetry_multiplicity
 _atom_site_fract_x
 _atom_site_fract_y
 _atom_site_fract_z
 _atom_site_occupancy
  Ca  Ca0  1  0.00000000  0.11148800  0.75000000  1
  Ca  Ca1  1  0.50000000  0.38851200  0.25000000  1
  Ca  Ca2  1  0.50000000  0.61148800  0.75000000  1
  Ca  Ca3  1  0.00000000  0.88851200  0.25000000  1
  Tm  Tm4  1  0.00000000  0.36745200  0.92616900  1
  Tm  Tm5  1  0.00000000  0.36745200  0.57383100  1
  Tm  Tm6  1  0.50000000  0.13254800  0.07383100  1
  Tm  Tm7  1  0.50000000  0.13254800  0.42616900  1
  Tm  Tm8  1  0.50000000  0.86745200  0.92616900  1
  Tm  Tm9  1  0.50000000  0.86745200  0.57383100  1
  Tm  Tm10  1  0.00000000  0.63254800  0.07383100  1
  Tm  Tm11  1  0.00000000  0.63254800  0.42616900  1
  O  O12  1  0.00000000  0.00000000  0.50000000  1
  O  O13  1  0.00000000  0.00000000  0.00000000  1
  O  O14  1  0.00000000  0.46376000  0.75000000  1
  O  O15  1  0.00000000  0.26522000  0.11203900  1
  O  O16  1  0.00000000  0.26522000  0.38796100  1
  O  O17  1  0.50000000  0.03624000  0.25000000  1
  O  O18  1  0.50000000  0.23478000  0.88796100  1
  O  O19  1  0.50000000  0.23478000  0.61203900  1
  O  O20  1  0.50000000  0.50000000  0.50000000  1
  O  O21  1  0.50000000  0.50000000  0.00000000  1
  O  O22  1  0.50000000  0.96376000  0.75000000  1
  O  O23  1  0.50000000  0.76522000  0.11203900  1
  O  O24  1  0.50000000  0.76522000  0.38796100  1
  O  O25  1  0.00000000  0.53624000  0.25000000  1
  O  O26  1  0.00000000  0.73478000  0.88796100  1
  O  O27  1  0.00000000  0.73478000  0.61203900  1
