# generated using pymatgen
data_Li2TiV3O8
_symmetry_space_group_name_H-M   'P 1'
_cell_length_a   5.89865400
_cell_length_b   10.32427600
_cell_length_c   9.57359588
_cell_angle_alpha   90.00000000
_cell_angle_beta   90.09758174
_cell_angle_gamma   90.00000000
_symmetry_Int_Tables_number   1
_chemical_formula_structural   Li2TiV3O8
_chemical_formula_sum   'Li8 Ti4 V12 O32'
_cell_volume   583.02474792
_cell_formula_units_Z   4
loop_
 _symmetry_equiv_pos_site_id
 _symmetry_equiv_pos_as_xyz
  1  'x, y, z'
loop_
 _atom_site_type_symbol
 _atom_site_label
 _atom_site_symmetry_multiplicity
 _atom_site_fract_x
 _atom_site_fract_y
 _atom_site_fract_z
 _atom_site_occupancy
  Li  Li0  1  0.49574850  0.16784650  0.10697300  1
  Li  Li1  1  0.00544150  0.00182650  0.00491800  1
  Li  Li2  1  0.50544150  0.49817350  0.50491800  1
  Li  Li3  1  0.99574850  0.33215350  0.60697300  1
  Li  Li4  1  0.99574850  0.66784650  0.10697300  1
  Li  Li5  1  0.50544150  0.50182650  0.00491800  1
  Li  Li6  1  0.00544150  0.99817350  0.50491800  1
  Li  Li7  1  0.49574850  0.83215350  0.60697300  1
  Ti  Ti8  1  0.50160600  0.16961500  0.50445800  1
  Ti  Ti9  1  0.00160600  0.33038500  0.00445800  1
  Ti  Ti10  1  0.00160600  0.66961500  0.50445800  1
  Ti  Ti11  1  0.50160600  0.83038500  0.00445800  1
  V  V12  1  0.74138450  0.08492550  0.78612600  1
  V  V13  1  0.49947450  0.32922150  0.78664900  1
  V  V14  1  0.99947450  0.17077850  0.28664900  1
  V  V15  1  0.76557250  0.41380250  0.28006000  1
  V  V16  1  0.26557250  0.08619750  0.78006000  1
  V  V17  1  0.24138450  0.41507450  0.28612600  1
  V  V18  1  0.24138450  0.58492550  0.78612600  1
  V  V19  1  0.99947450  0.82922150  0.78664900  1
  V  V20  1  0.49947450  0.67077850  0.28664900  1
  V  V21  1  0.26557250  0.91380250  0.28006000  1
  V  V22  1  0.76557250  0.58619750  0.78006000  1
  V  V23  1  0.74138450  0.91507450  0.28612600  1
  O  O24  1  0.75054850  0.08312750  0.40448700  1
  O  O25  1  0.49375500  0.01799800  0.65558300  1
  O  O26  1  0.48442800  0.16105600  0.89870400  1
  O  O27  1  0.01178300  0.00546300  0.69305000  1
  O  O28  1  0.51178300  0.49453700  0.19305000  1
  O  O29  1  0.25495200  0.08461200  0.40337300  1
  O  O30  1  0.71841450  0.23800750  0.65844100  1
  O  O31  1  0.27585400  0.23741100  0.65692800  1
  O  O32  1  0.00118700  0.16958800  0.90633000  1
  O  O33  1  0.50118700  0.33041200  0.40633000  1
  O  O34  1  0.21841450  0.26199250  0.15844100  1
  O  O35  1  0.77585400  0.26258900  0.15692800  1
  O  O36  1  0.98442800  0.33894400  0.39870400  1
  O  O37  1  0.25054850  0.41687250  0.90448700  1
  O  O38  1  0.99375500  0.48200200  0.15558300  1
  O  O39  1  0.75495200  0.41538800  0.90337300  1
  O  O40  1  0.25054850  0.58312750  0.40448700  1
  O  O41  1  0.99375500  0.51799800  0.65558300  1
  O  O42  1  0.98442800  0.66105600  0.89870400  1
  O  O43  1  0.51178300  0.50546300  0.69305000  1
  O  O44  1  0.01178300  0.99453700  0.19305000  1
  O  O45  1  0.75495200  0.58461200  0.40337300  1
  O  O46  1  0.21841450  0.73800750  0.65844100  1
  O  O47  1  0.77585400  0.73741100  0.65692800  1
  O  O48  1  0.50118700  0.66958800  0.90633000  1
  O  O49  1  0.00118700  0.83041200  0.40633000  1
  O  O50  1  0.71841450  0.76199250  0.15844100  1
  O  O51  1  0.27585400  0.76258900  0.15692800  1
  O  O52  1  0.48442800  0.83894400  0.39870400  1
  O  O53  1  0.75054850  0.91687250  0.90448700  1
  O  O54  1  0.49375500  0.98200200  0.15558300  1
  O  O55  1  0.25495200  0.91538800  0.90337300  1
