# generated using pymatgen
data_NaCuP2O7
_symmetry_space_group_name_H-M   'P 1'
_cell_length_a   15.18054400
_cell_length_b   5.57743800
_cell_length_c   8.12355079
_cell_angle_alpha   90.00000000
_cell_angle_beta   115.47094411
_cell_angle_gamma   90.00000000
_symmetry_Int_Tables_number   1
_chemical_formula_structural   NaCuP2O7
_chemical_formula_sum   'Na4 Cu4 P8 O28'
_cell_volume   620.95655406
_cell_formula_units_Z   4
loop_
 _symmetry_equiv_pos_site_id
 _symmetry_equiv_pos_as_xyz
  1  'x, y, z'
loop_
 _atom_site_type_symbol
 _atom_site_label
 _atom_site_symmetry_multiplicity
 _atom_site_fract_x
 _atom_site_fract_y
 _atom_site_fract_z
 _atom_site_occupancy
  Na  Na0  1  0.26623250  0.35146250  0.69955200  1
  Na  Na1  1  0.26623250  0.64853750  0.19955200  1
  Na  Na2  1  0.76623250  0.85146250  0.69955200  1
  Na  Na3  1  0.76623250  0.14853750  0.19955200  1
  Cu  Cu4  1  0.00071150  0.99972750  0.00095800  1
  Cu  Cu5  1  0.00071150  0.00027250  0.50095800  1
  Cu  Cu6  1  0.50071150  0.49972750  0.00095800  1
  Cu  Cu7  1  0.50071150  0.50027250  0.50095800  1
  P  P8  1  0.39875800  0.84346400  0.66064200  1
  P  P9  1  0.39875800  0.15653600  0.16064200  1
  P  P10  1  0.10139450  0.33784050  0.84047900  1
  P  P11  1  0.10139450  0.66215950  0.34047900  1
  P  P12  1  0.89875800  0.34346400  0.66064200  1
  P  P13  1  0.89875800  0.65653600  0.16064200  1
  P  P14  1  0.60139450  0.83784050  0.84047900  1
  P  P15  1  0.60139450  0.16215950  0.34047900  1
  O  O16  1  0.40059150  0.65978250  0.80822400  1
  O  O17  1  0.40275750  0.70782150  0.49509200  1
  O  O18  1  0.31281400  0.99378800  0.09887800  1
  O  O19  1  0.00054800  0.49507700  0.75125900  1
  O  O20  1  0.00054800  0.50492300  0.25125900  1
  O  O21  1  0.31281400  0.00621200  0.59887800  1
  O  O22  1  0.10063900  0.16829300  0.68709100  1
  O  O23  1  0.09734300  0.20516800  0.00553500  1
  O  O24  1  0.40275750  0.29217850  0.99509200  1
  O  O25  1  0.40059150  0.34021750  0.30822400  1
  O  O26  1  0.18926350  0.50283550  0.40335300  1
  O  O27  1  0.18926350  0.49716450  0.90335300  1
  O  O28  1  0.09734300  0.79483200  0.50553500  1
  O  O29  1  0.10063900  0.83170700  0.18709100  1
  O  O30  1  0.90059150  0.15978250  0.80822400  1
  O  O31  1  0.90275750  0.20782150  0.49509200  1
  O  O32  1  0.81281400  0.49378800  0.09887800  1
  O  O33  1  0.50054800  0.99507700  0.75125900  1
  O  O34  1  0.50054800  0.00492300  0.25125900  1
  O  O35  1  0.81281400  0.50621200  0.59887800  1
  O  O36  1  0.60063900  0.66829300  0.68709100  1
  O  O37  1  0.59734300  0.70516800  0.00553500  1
  O  O38  1  0.90275750  0.79217850  0.99509200  1
  O  O39  1  0.90059150  0.84021750  0.30822400  1
  O  O40  1  0.68926350  0.00283550  0.40335300  1
  O  O41  1  0.68926350  0.99716450  0.90335300  1
  O  O42  1  0.59734300  0.29483200  0.50553500  1
  O  O43  1  0.60063900  0.33170700  0.18709100  1
