# generated using pymatgen
data_Fe10OF19
_symmetry_space_group_name_H-M   'P 1'
_cell_length_a   6.80343400
_cell_length_b   34.16373200
_cell_length_c   3.27023000
_cell_angle_alpha   90.00000000
_cell_angle_beta   90.00000000
_cell_angle_gamma   90.00000000
_symmetry_Int_Tables_number   1
_chemical_formula_structural   Fe10OF19
_chemical_formula_sum   'Fe20 O2 F38'
_cell_volume   760.10183451
_cell_formula_units_Z   2
loop_
 _symmetry_equiv_pos_site_id
 _symmetry_equiv_pos_as_xyz
  1  'x, y, z'
loop_
 _atom_site_type_symbol
 _atom_site_label
 _atom_site_symmetry_multiplicity
 _atom_site_fract_x
 _atom_site_fract_y
 _atom_site_fract_z
 _atom_site_occupancy
  Fe  Fe0  1  0.01198100  0.00000000  0.00000000  1
  Fe  Fe1  1  0.47171500  0.00000000  0.50000000  1
  Fe  Fe2  1  0.00094050  0.40018150  0.00000000  1
  Fe  Fe3  1  0.49986750  0.39996350  0.50000000  1
  Fe  Fe4  1  0.00001550  0.29990150  0.50000000  1
  Fe  Fe5  1  0.50010700  0.29999100  0.00000000  1
  Fe  Fe6  1  0.00010700  0.20000900  0.00000000  1
  Fe  Fe7  1  0.99986750  0.10003650  0.50000000  1
  Fe  Fe8  1  0.50001550  0.20009850  0.50000000  1
  Fe  Fe9  1  0.50094050  0.09981850  0.00000000  1
  Fe  Fe10  1  0.51198100  0.50000000  0.00000000  1
  Fe  Fe11  1  0.97171500  0.50000000  0.50000000  1
  Fe  Fe12  1  0.50094050  0.90018150  0.00000000  1
  Fe  Fe13  1  0.99986750  0.89996350  0.50000000  1
  Fe  Fe14  1  0.50001550  0.79990150  0.50000000  1
  Fe  Fe15  1  0.00010700  0.79999100  0.00000000  1
  Fe  Fe16  1  0.50010700  0.70000900  0.00000000  1
  Fe  Fe17  1  0.49986750  0.60003650  0.50000000  1
  Fe  Fe18  1  0.00001550  0.70009850  0.50000000  1
  Fe  Fe19  1  0.00094050  0.59981850  0.00000000  1
  O  O20  1  0.31424000  0.00000000  0.00000000  1
  O  O21  1  0.81424000  0.50000000  0.00000000  1
  F  F22  1  0.69388700  0.00000000  0.00000000  1
  F  F23  1  0.70271550  0.39984450  0.00000000  1
  F  F24  1  0.00739950  0.44124350  0.50000000  1
  F  F25  1  0.49352100  0.45938900  0.50000000  1
  F  F26  1  0.99939050  0.35978550  0.50000000  1
  F  F27  1  0.29870650  0.39885550  0.00000000  1
  F  F28  1  0.79921650  0.29988750  0.00000000  1
  F  F29  1  0.20100250  0.29994050  0.00000000  1
  F  F30  1  0.50116350  0.34009750  0.50000000  1
  F  F31  1  0.00004400  0.24020400  0.50000000  1
  F  F32  1  0.50004400  0.25979600  0.50000000  1
  F  F33  1  0.00116350  0.15990250  0.50000000  1
  F  F34  1  0.29921650  0.20011250  0.00000000  1
  F  F35  1  0.70100250  0.20005950  0.00000000  1
  F  F36  1  0.20271550  0.10015550  0.00000000  1
  F  F37  1  0.49939050  0.14021450  0.50000000  1
  F  F38  1  0.99352100  0.04061100  0.50000000  1
  F  F39  1  0.50739950  0.05875650  0.50000000  1
  F  F40  1  0.79870650  0.10114450  0.00000000  1
  F  F41  1  0.19388700  0.50000000  0.00000000  1
  F  F42  1  0.20271550  0.89984450  0.00000000  1
  F  F43  1  0.50739950  0.94124350  0.50000000  1
  F  F44  1  0.99352100  0.95938900  0.50000000  1
  F  F45  1  0.49939050  0.85978550  0.50000000  1
  F  F46  1  0.79870650  0.89885550  0.00000000  1
  F  F47  1  0.29921650  0.79988750  0.00000000  1
  F  F48  1  0.70100250  0.79994050  0.00000000  1
  F  F49  1  0.00116350  0.84009750  0.50000000  1
  F  F50  1  0.50004400  0.74020400  0.50000000  1
  F  F51  1  0.00004400  0.75979600  0.50000000  1
  F  F52  1  0.50116350  0.65990250  0.50000000  1
  F  F53  1  0.79921650  0.70011250  0.00000000  1
  F  F54  1  0.20100250  0.70005950  0.00000000  1
  F  F55  1  0.70271550  0.60015550  0.00000000  1
  F  F56  1  0.99939050  0.64021450  0.50000000  1
  F  F57  1  0.49352100  0.54061100  0.50000000  1
  F  F58  1  0.00739950  0.55875650  0.50000000  1
  F  F59  1  0.29870650  0.60114450  0.00000000  1
