# generated using pymatgen
data_Tb3SbO7
_symmetry_space_group_name_H-M   'P 1'
_cell_length_a   7.53541800
_cell_length_b   10.62713600
_cell_length_c   7.55241500
_cell_angle_alpha   90.00000000
_cell_angle_beta   90.00000000
_cell_angle_gamma   90.00000000
_symmetry_Int_Tables_number   1
_chemical_formula_structural   Tb3SbO7
_chemical_formula_sum   'Tb12 Sb4 O28'
_cell_volume   604.79672785
_cell_formula_units_Z   4
loop_
 _symmetry_equiv_pos_site_id
 _symmetry_equiv_pos_as_xyz
  1  'x, y, z'
loop_
 _atom_site_type_symbol
 _atom_site_label
 _atom_site_symmetry_multiplicity
 _atom_site_fract_x
 _atom_site_fract_y
 _atom_site_fract_z
 _atom_site_occupancy
  Tb  Tb0  1  0.23399900  0.76600400  0.25268900  1
  Tb  Tb1  1  0.76600100  0.76600400  0.24731100  1
  Tb  Tb2  1  0.48699000  0.00000000  0.00000000  1
  Tb  Tb3  1  0.51301000  0.00000000  0.50000000  1
  Tb  Tb4  1  0.76600100  0.23399600  0.75268900  1
  Tb  Tb5  1  0.23399900  0.23399600  0.74731100  1
  Tb  Tb6  1  0.73399900  0.26600400  0.25268900  1
  Tb  Tb7  1  0.26600100  0.26600400  0.24731100  1
  Tb  Tb8  1  0.98699000  0.50000000  0.00000000  1
  Tb  Tb9  1  0.01301000  0.50000000  0.50000000  1
  Tb  Tb10  1  0.26600100  0.73399600  0.75268900  1
  Tb  Tb11  1  0.73399900  0.73399600  0.74731100  1
  Sb  Sb12  1  0.99960300  0.00000000  0.50000000  1
  Sb  Sb13  1  0.00039700  0.00000000  0.00000000  1
  Sb  Sb14  1  0.49960300  0.50000000  0.50000000  1
  Sb  Sb15  1  0.50039700  0.50000000  0.00000000  1
  O  O16  1  0.50000000  0.56955700  0.75000000  1
  O  O17  1  0.50000000  0.86264900  0.75000000  1
  O  O18  1  0.19058600  0.87360000  0.53254600  1
  O  O19  1  0.80941400  0.87360000  0.96745400  1
  O  O20  1  0.50000000  0.87039600  0.25000000  1
  O  O21  1  0.79949600  0.87696100  0.52751000  1
  O  O22  1  0.20050400  0.87696100  0.97249000  1
  O  O23  1  0.20050400  0.12303900  0.02751000  1
  O  O24  1  0.79949600  0.12303900  0.47249000  1
  O  O25  1  0.50000000  0.12960400  0.75000000  1
  O  O26  1  0.80941400  0.12640000  0.03254600  1
  O  O27  1  0.19058600  0.12640000  0.46745400  1
  O  O28  1  0.50000000  0.13735100  0.25000000  1
  O  O29  1  0.50000000  0.43044300  0.25000000  1
  O  O30  1  0.00000000  0.06955700  0.75000000  1
  O  O31  1  0.00000000  0.36264900  0.75000000  1
  O  O32  1  0.69058600  0.37360000  0.53254600  1
  O  O33  1  0.30941400  0.37360000  0.96745400  1
  O  O34  1  0.00000000  0.37039600  0.25000000  1
  O  O35  1  0.29949600  0.37696100  0.52751000  1
  O  O36  1  0.70050400  0.37696100  0.97249000  1
  O  O37  1  0.70050400  0.62303900  0.02751000  1
  O  O38  1  0.29949600  0.62303900  0.47249000  1
  O  O39  1  0.00000000  0.62960400  0.75000000  1
  O  O40  1  0.30941400  0.62640000  0.03254600  1
  O  O41  1  0.69058600  0.62640000  0.46745400  1
  O  O42  1  0.00000000  0.63735100  0.25000000  1
  O  O43  1  0.00000000  0.93044300  0.25000000  1
