# generated using pymatgen
data_VFe(P2O7)2
_symmetry_space_group_name_H-M   'P 1'
_cell_length_a   4.88804262
_cell_length_b   6.99073807
_cell_length_c   8.11796880
_cell_angle_alpha   89.47380750
_cell_angle_beta   89.24529982
_cell_angle_gamma   74.59639713
_symmetry_Int_Tables_number   1
_chemical_formula_structural   VFe(P2O7)2
_chemical_formula_sum   'V1 Fe1 P4 O14'
_cell_volume   267.40692634
_cell_formula_units_Z   1
loop_
 _symmetry_equiv_pos_site_id
 _symmetry_equiv_pos_as_xyz
  1  'x, y, z'
loop_
 _atom_site_type_symbol
 _atom_site_label
 _atom_site_symmetry_multiplicity
 _atom_site_fract_x
 _atom_site_fract_y
 _atom_site_fract_z
 _atom_site_occupancy
  V  V0  1  0.21157100  0.27267200  0.50561400  1
  Fe  Fe1  1  0.78499250  0.73239550  0.00743600  1
  P  P2  1  0.38353500  0.49484900  0.18601000  1
  P  P3  1  0.25059050  0.89083500  0.76891900  1
  P  P4  1  0.75935200  0.10926850  0.27131500  1
  P  P5  1  0.61172600  0.50640050  0.69356800  1
  O  O6  1  0.01419400  0.17552150  0.33629200  1
  O  O7  1  0.17229400  0.07739900  0.65311300  1
  O  O8  1  0.14457400  0.53034500  0.06513400  1
  O  O9  1  0.27048900  0.46962400  0.36546300  1
  O  O10  1  0.41449800  0.36776650  0.67232400  1
  O  O11  1  0.55375950  0.10092400  0.41841200  1
  O  O12  1  0.58641300  0.27519650  0.14717600  1
  O  O13  1  0.43495650  0.72566450  0.64020800  1
  O  O14  1  0.43587400  0.91871550  0.90952300  1
  O  O15  1  0.56167300  0.64075350  0.18864300  1
  O  O16  1  0.70792450  0.50949700  0.86843000  1
  O  O17  1  0.86030750  0.44956600  0.56847400  1
  O  O18  1  0.85581850  0.92117550  0.17529200  1
  O  O19  1  0.98550900  0.83157750  0.81688800  1
