# generated using pymatgen
data_Sn2P2O7
_symmetry_space_group_name_H-M   'P 1'
_cell_length_a   6.98613200
_cell_length_b   7.04389705
_cell_length_c   13.01765237
_cell_angle_alpha   83.33325966
_cell_angle_beta   89.96986367
_cell_angle_gamma   89.99300467
_symmetry_Int_Tables_number   1
_chemical_formula_structural   Sn2P2O7
_chemical_formula_sum   'Sn8 P8 O28'
_cell_volume   636.26174751
_cell_formula_units_Z   4
loop_
 _symmetry_equiv_pos_site_id
 _symmetry_equiv_pos_as_xyz
  1  'x, y, z'
loop_
 _atom_site_type_symbol
 _atom_site_label
 _atom_site_symmetry_multiplicity
 _atom_site_fract_x
 _atom_site_fract_y
 _atom_site_fract_z
 _atom_site_occupancy
  Sn  Sn0  1  0.90997500  0.20949900  0.86428700  1
  Sn  Sn1  1  0.74537700  0.82101600  0.64956700  1
  Sn  Sn2  1  0.66695400  0.19746100  0.13822900  1
  Sn  Sn3  1  0.66051600  0.61871900  0.37733100  1
  Sn  Sn4  1  0.33948400  0.38128100  0.62266900  1
  Sn  Sn5  1  0.33304600  0.80253900  0.86177100  1
  Sn  Sn6  1  0.25462300  0.17898400  0.35043300  1
  Sn  Sn7  1  0.09002500  0.79050100  0.13571300  1
  P  P8  1  0.83260600  0.69692000  0.91545700  1
  P  P9  1  0.81608700  0.29944400  0.58788100  1
  P  P10  1  0.76811400  0.09940300  0.40044400  1
  P  P11  1  0.57638100  0.70758200  0.09964400  1
  P  P12  1  0.42361900  0.29241800  0.90035600  1
  P  P13  1  0.23188600  0.90059700  0.59955600  1
  P  P14  1  0.18391300  0.70055600  0.41211900  1
  P  P15  1  0.16739400  0.30308000  0.08454300  1
  O  O16  1  0.99755300  0.81278700  0.95879900  1
  O  O17  1  0.99216500  0.36750000  0.64097400  1
  O  O18  1  0.91169100  0.52705000  0.86628500  1
  O  O19  1  0.91278800  0.07828800  0.31488300  1
  O  O20  1  0.88882500  0.20983900  0.48455400  1
  O  O21  1  0.69871200  0.82921700  0.84514300  1
  O  O22  1  0.70068600  0.14164300  0.65381100  1
  O  O23  1  0.70145000  0.90845800  0.46059700  1
  O  O24  1  0.70368700  0.86362100  0.13888300  1
  O  O25  1  0.70515900  0.60868700  0.01423100  1
  O  O26  1  0.67819800  0.46564200  0.54846700  1
  O  O27  1  0.60279800  0.20440500  0.95935200  1
  O  O28  1  0.59944700  0.23020100  0.36207100  1
  O  O29  1  0.52998700  0.54346600  0.18077800  1
  O  O30  1  0.47001300  0.45653400  0.81922200  1
  O  O31  1  0.40055300  0.76979900  0.63792900  1
  O  O32  1  0.39720200  0.79559500  0.04064800  1
  O  O33  1  0.32180200  0.53435800  0.45153300  1
  O  O34  1  0.29484100  0.39131300  0.98576900  1
  O  O35  1  0.29631300  0.13637900  0.86111700  1
  O  O36  1  0.29855000  0.09154200  0.53940300  1
  O  O37  1  0.29931400  0.85835700  0.34618900  1
  O  O38  1  0.30128800  0.17078300  0.15485700  1
  O  O39  1  0.11117500  0.79016100  0.51544600  1
  O  O40  1  0.08721200  0.92171200  0.68511700  1
  O  O41  1  0.08830900  0.47295000  0.13371500  1
  O  O42  1  0.00783500  0.63250000  0.35902600  1
  O  O43  1  0.00244700  0.18721300  0.04120100  1
