# generated using pymatgen
data_Y2HgO4
_symmetry_space_group_name_H-M   'P 1'
_cell_length_a   9.71866600
_cell_length_b   9.71866600
_cell_length_c   9.71866600
_cell_angle_alpha   90.00000000
_cell_angle_beta   90.00000000
_cell_angle_gamma   90.00000000
_symmetry_Int_Tables_number   1
_chemical_formula_structural   Y2HgO4
_chemical_formula_sum   'Y16 Hg8 O32'
_cell_volume   917.95199733
_cell_formula_units_Z   8
loop_
 _symmetry_equiv_pos_site_id
 _symmetry_equiv_pos_as_xyz
  1  'x, y, z'
loop_
 _atom_site_type_symbol
 _atom_site_label
 _atom_site_symmetry_multiplicity
 _atom_site_fract_x
 _atom_site_fract_y
 _atom_site_fract_z
 _atom_site_occupancy
  Y  Y0  1  0.12500000  0.12500000  0.12500000  1
  Y  Y1  1  0.62500000  0.87500000  0.37500000  1
  Y  Y2  1  0.37500000  0.12500000  0.37500000  1
  Y  Y3  1  0.87500000  0.87500000  0.12500000  1
  Y  Y4  1  0.12500000  0.62500000  0.62500000  1
  Y  Y5  1  0.62500000  0.37500000  0.87500000  1
  Y  Y6  1  0.37500000  0.62500000  0.87500000  1
  Y  Y7  1  0.87500000  0.37500000  0.62500000  1
  Y  Y8  1  0.62500000  0.12500000  0.62500000  1
  Y  Y9  1  0.12500000  0.87500000  0.87500000  1
  Y  Y10  1  0.87500000  0.12500000  0.87500000  1
  Y  Y11  1  0.37500000  0.87500000  0.62500000  1
  Y  Y12  1  0.62500000  0.62500000  0.12500000  1
  Y  Y13  1  0.12500000  0.37500000  0.37500000  1
  Y  Y14  1  0.87500000  0.62500000  0.37500000  1
  Y  Y15  1  0.37500000  0.37500000  0.12500000  1
  Hg  Hg16  1  0.25000000  0.75000000  0.25000000  1
  Hg  Hg17  1  0.00000000  0.00000000  0.50000000  1
  Hg  Hg18  1  0.25000000  0.25000000  0.75000000  1
  Hg  Hg19  1  0.00000000  0.50000000  0.00000000  1
  Hg  Hg20  1  0.75000000  0.75000000  0.75000000  1
  Hg  Hg21  1  0.50000000  0.00000000  0.00000000  1
  Hg  Hg22  1  0.75000000  0.25000000  0.25000000  1
  Hg  Hg23  1  0.50000000  0.50000000  0.50000000  1
  O  O24  1  0.13981300  0.36018700  0.13981300  1
  O  O25  1  0.13981300  0.13981300  0.36018700  1
  O  O26  1  0.36018700  0.36018700  0.36018700  1
  O  O27  1  0.36018700  0.13981300  0.13981300  1
  O  O28  1  0.38981300  0.88981300  0.38981300  1
  O  O29  1  0.88981300  0.11018700  0.11018700  1
  O  O30  1  0.11018700  0.88981300  0.11018700  1
  O  O31  1  0.61018700  0.11018700  0.38981300  1
  O  O32  1  0.13981300  0.86018700  0.63981300  1
  O  O33  1  0.13981300  0.63981300  0.86018700  1
  O  O34  1  0.36018700  0.86018700  0.86018700  1
  O  O35  1  0.36018700  0.63981300  0.63981300  1
  O  O36  1  0.38981300  0.38981300  0.88981300  1
  O  O37  1  0.88981300  0.61018700  0.61018700  1
  O  O38  1  0.11018700  0.38981300  0.61018700  1
  O  O39  1  0.61018700  0.61018700  0.88981300  1
  O  O40  1  0.63981300  0.36018700  0.63981300  1
  O  O41  1  0.63981300  0.13981300  0.86018700  1
  O  O42  1  0.86018700  0.36018700  0.86018700  1
  O  O43  1  0.86018700  0.13981300  0.63981300  1
  O  O44  1  0.88981300  0.88981300  0.88981300  1
  O  O45  1  0.38981300  0.11018700  0.61018700  1
  O  O46  1  0.61018700  0.88981300  0.61018700  1
  O  O47  1  0.11018700  0.11018700  0.88981300  1
  O  O48  1  0.63981300  0.86018700  0.13981300  1
  O  O49  1  0.63981300  0.63981300  0.36018700  1
  O  O50  1  0.86018700  0.86018700  0.36018700  1
  O  O51  1  0.86018700  0.63981300  0.13981300  1
  O  O52  1  0.88981300  0.38981300  0.38981300  1
  O  O53  1  0.38981300  0.61018700  0.11018700  1
  O  O54  1  0.61018700  0.38981300  0.11018700  1
  O  O55  1  0.11018700  0.61018700  0.38981300  1
