# generated using pymatgen
data_BaYI5
_symmetry_space_group_name_H-M   'P 1'
_cell_length_a   8.05757500
_cell_length_b   8.61481700
_cell_length_c   18.91437900
_cell_angle_alpha   90.00000000
_cell_angle_beta   90.00000000
_cell_angle_gamma   90.00000000
_symmetry_Int_Tables_number   1
_chemical_formula_structural   BaYI5
_chemical_formula_sum   'Ba4 Y4 I20'
_cell_volume   1312.93280586
_cell_formula_units_Z   4
loop_
 _symmetry_equiv_pos_site_id
 _symmetry_equiv_pos_as_xyz
  1  'x, y, z'
loop_
 _atom_site_type_symbol
 _atom_site_label
 _atom_site_symmetry_multiplicity
 _atom_site_fract_x
 _atom_site_fract_y
 _atom_site_fract_z
 _atom_site_occupancy
  Ba  Ba0  1  0.76705900  0.70729500  0.66638800  1
  Ba  Ba1  1  0.26705900  0.79270500  0.33361200  1
  Ba  Ba2  1  0.73294100  0.29270500  0.16638800  1
  Ba  Ba3  1  0.23294100  0.20729500  0.83361200  1
  Y  Y4  1  0.32796300  0.12691900  0.58509000  1
  Y  Y5  1  0.82796300  0.37308100  0.41491000  1
  Y  Y6  1  0.17203700  0.87308100  0.08509000  1
  Y  Y7  1  0.67203700  0.62691900  0.91491000  1
  I  I8  1  0.14285400  0.91166900  0.68456800  1
  I  I9  1  0.59927400  0.09491800  0.69313300  1
  I  I10  1  0.15553200  0.38488000  0.66004400  1
  I  I11  1  0.48075100  0.85830400  0.50606500  1
  I  I12  1  0.54213400  0.39367900  0.52256400  1
  I  I13  1  0.04213400  0.10632100  0.47743600  1
  I  I14  1  0.98075100  0.64169600  0.49393500  1
  I  I15  1  0.65553200  0.11512000  0.33995600  1
  I  I16  1  0.09927400  0.40508200  0.30686700  1
  I  I17  1  0.64285400  0.58833100  0.31543200  1
  I  I18  1  0.35714600  0.08833100  0.18456800  1
  I  I19  1  0.90072600  0.90508200  0.19313300  1
  I  I20  1  0.34446800  0.61512000  0.16004400  1
  I  I21  1  0.01924900  0.14169600  0.00606500  1
  I  I22  1  0.95786600  0.60632100  0.02256400  1
  I  I23  1  0.45786600  0.89367900  0.97743600  1
  I  I24  1  0.51924900  0.35830400  0.99393500  1
  I  I25  1  0.84446800  0.88488000  0.83995600  1
  I  I26  1  0.40072600  0.59491800  0.80686700  1
  I  I27  1  0.85714600  0.41166900  0.81543200  1
