# generated using pymatgen
data_Mn3VTe2(PO4)6
_symmetry_space_group_name_H-M   'P 1'
_cell_length_a   8.85735641
_cell_length_b   8.85735641
_cell_length_c   21.75098121
_cell_angle_alpha   90.00000000
_cell_angle_beta   90.00000000
_cell_angle_gamma   120.00000000
_symmetry_Int_Tables_number   1
_chemical_formula_structural   Mn3VTe2(PO4)6
_chemical_formula_sum   'Mn9 V3 Te6 P18 O72'
_cell_volume   1477.80702307
_cell_formula_units_Z   3
loop_
 _symmetry_equiv_pos_site_id
 _symmetry_equiv_pos_as_xyz
  1  'x, y, z'
loop_
 _atom_site_type_symbol
 _atom_site_label
 _atom_site_symmetry_multiplicity
 _atom_site_fract_x
 _atom_site_fract_y
 _atom_site_fract_z
 _atom_site_occupancy
  Mn  Mn0  1  0.66666667  0.33333333  0.17281133  1
  Mn  Mn1  1  0.33333333  0.66666667  0.31776567  1
  Mn  Mn2  1  0.33333333  0.66666667  0.01212767  1
  Mn  Mn3  1  0.33333333  0.66666667  0.50614467  1
  Mn  Mn4  1  0.00000000  0.00000000  0.65109900  1
  Mn  Mn5  1  0.00000000  0.00000000  0.34546100  1
  Mn  Mn6  1  0.00000000  0.00000000  0.83947800  1
  Mn  Mn7  1  0.66666667  0.33333333  0.98443233  1
  Mn  Mn8  1  0.66666667  0.33333333  0.67879433  1
  V  V9  1  0.00000000  0.00000000  0.14586700  1
  V  V10  1  0.66666667  0.33333333  0.47920033  1
  V  V11  1  0.33333333  0.66666667  0.81253367  1
  Te  Te12  1  0.66666667  0.33333333  0.31579233  1
  Te  Te13  1  0.33333333  0.66666667  0.15675467  1
  Te  Te14  1  0.33333333  0.66666667  0.64912567  1
  Te  Te15  1  0.00000000  0.00000000  0.49008800  1
  Te  Te16  1  0.00000000  0.00000000  0.98245900  1
  Te  Te17  1  0.66666667  0.33333333  0.82342133  1
  P  P18  1  0.00177467  0.29333633  0.24976933  1
  P  P19  1  0.70666367  0.70843833  0.24976933  1
  P  P20  1  0.29156167  0.99822533  0.24976933  1
  P  P21  1  0.35963933  0.32980267  0.08681467  1
  P  P22  1  0.97016333  0.64036067  0.08681467  1
  P  P23  1  0.67019733  0.02983667  0.08681467  1
  P  P24  1  0.66844133  0.62666967  0.58310267  1
  P  P25  1  0.37333033  0.04177167  0.58310267  1
  P  P26  1  0.95822833  0.33155867  0.58310267  1
  P  P27  1  0.02630600  0.66313600  0.42014800  1
  P  P28  1  0.63683000  0.97369400  0.42014800  1
  P  P29  1  0.33686400  0.36317000  0.42014800  1
  P  P30  1  0.33510800  0.96000300  0.91643600  1
  P  P31  1  0.03999700  0.37510500  0.91643600  1
  P  P32  1  0.62489500  0.66489200  0.91643600  1
  P  P33  1  0.69297267  0.99646933  0.75348133  1
  P  P34  1  0.30349667  0.30702733  0.75348133  1
  P  P35  1  0.00353067  0.69650333  0.75348133  1
  O  O36  1  0.67293000  0.11720900  0.02679100  1
  O  O37  1  0.44427900  0.32707000  0.02679100  1
  O  O38  1  0.82822467  0.31778633  0.25497433  1
  O  O39  1  0.88279100  0.55572100  0.02679100  1
  O  O40  1  0.15730033  0.47885067  0.23828067  1
  O  O41  1  0.98027367  0.17942633  0.19291633  1
  O  O42  1  0.68221367  0.51043833  0.25497433  1
  O  O43  1  0.52114933  0.67844967  0.23828067  1
  O  O44  1  0.32155033  0.84269967  0.23828067  1
  O  O45  1  0.45455800  0.34017800  0.14553500  1
  O  O46  1  0.16839233  0.16792167  0.08588167  1
  O  O47  1  0.88562000  0.54544200  0.14553500  1
  O  O48  1  0.82057367  0.80084733  0.19291633  1
  O  O49  1  0.48956167  0.17177533  0.25497433  1
  O  O50  1  0.19915267  0.01972633  0.19291633  1
  O  O51  1  0.32958600  0.49586600  0.09059800  1
  O  O52  1  0.16628000  0.67041400  0.09059800  1
  O  O53  1  0.99952933  0.83160767  0.08588167  1
  O  O54  1  0.65982200  0.11438000  0.14553500  1
  O  O55  1  0.50413400  0.83372000  0.09059800  1
  O  O56  1  0.78432133  0.78944467  0.31028867  1
  O  O57  1  0.83207833  0.00047067  0.08588167  1
  O  O58  1  0.21055533  0.99487667  0.31028867  1
  O  O59  1  0.00512333  0.21567867  0.31028867  1
  O  O60  1  0.33959667  0.45054233  0.36012433  1
  O  O61  1  0.11094567  0.66040333  0.36012433  1
  O  O62  1  0.49489133  0.65111967  0.58830767  1
  O  O63  1  0.54945767  0.88905433  0.36012433  1
  O  O64  1  0.82396700  0.81218400  0.57161400  1
  O  O65  1  0.64694033  0.51275967  0.52624967  1
  O  O66  1  0.34888033  0.84377167  0.58830767  1
  O  O67  1  0.18781600  0.01178300  0.57161400  1
  O  O68  1  0.98821700  0.17603300  0.57161400  1
  O  O69  1  0.12122467  0.67351133  0.47886833  1
  O  O70  1  0.83505900  0.50125500  0.41921500  1
  O  O71  1  0.55228667  0.87877533  0.47886833  1
  O  O72  1  0.48724033  0.13418067  0.52624967  1
  O  O73  1  0.15622833  0.50510867  0.58830767  1
  O  O74  1  0.86581933  0.35305967  0.52624967  1
  O  O75  1  0.99625267  0.82919933  0.42393133  1
  O  O76  1  0.83294667  0.00374733  0.42393133  1
  O  O77  1  0.66619600  0.16494100  0.41921500  1
  O  O78  1  0.32648867  0.44771333  0.47886833  1
  O  O79  1  0.17080067  0.16705333  0.42393133  1
  O  O80  1  0.45098800  0.12277800  0.64362200  1
  O  O81  1  0.49874500  0.33380400  0.41921500  1
  O  O82  1  0.87722200  0.32821000  0.64362200  1
  O  O83  1  0.67179000  0.54901200  0.64362200  1
  O  O84  1  0.00626333  0.78387567  0.69345767  1
  O  O85  1  0.77761233  0.99373667  0.69345767  1
  O  O86  1  0.16155800  0.98445300  0.92164100  1
  O  O87  1  0.21612433  0.22238767  0.69345767  1
  O  O88  1  0.49063367  0.14551733  0.90494733  1
  O  O89  1  0.31360700  0.84609300  0.85958300  1
  O  O90  1  0.01554700  0.17710500  0.92164100  1
  O  O91  1  0.85448267  0.34511633  0.90494733  1
  O  O92  1  0.65488367  0.50936633  0.90494733  1
  O  O93  1  0.78789133  0.00684467  0.81220167  1
  O  O94  1  0.50172567  0.83458833  0.75254833  1
  O  O95  1  0.21895333  0.21210867  0.81220167  1
  O  O96  1  0.15390700  0.46751400  0.85958300  1
  O  O97  1  0.82289500  0.83844200  0.92164100  1
  O  O98  1  0.53248600  0.68639300  0.85958300  1
  O  O99  1  0.66291933  0.16253267  0.75726467  1
  O  O100  1  0.49961333  0.33708067  0.75726467  1
  O  O101  1  0.33286267  0.49827433  0.75254833  1
  O  O102  1  0.99315533  0.78104667  0.81220167  1
  O  O103  1  0.83746733  0.50038667  0.75726467  1
  O  O104  1  0.11765467  0.45611133  0.97695533  1
  O  O105  1  0.16541167  0.66713733  0.75254833  1
  O  O106  1  0.54388867  0.66154333  0.97695533  1
  O  O107  1  0.33845667  0.88234533  0.97695533  1
