# generated using pymatgen
data_Ba3Sr4O7
_symmetry_space_group_name_H-M   'P 1'
_cell_length_a   3.80435600
_cell_length_b   5.39864000
_cell_length_c   26.73624200
_cell_angle_alpha   90.00000000
_cell_angle_beta   90.00000000
_cell_angle_gamma   90.00000000
_symmetry_Int_Tables_number   1
_chemical_formula_structural   Ba3Sr4O7
_chemical_formula_sum   'Ba6 Sr8 O14'
_cell_volume   549.11825513
_cell_formula_units_Z   2
loop_
 _symmetry_equiv_pos_site_id
 _symmetry_equiv_pos_as_xyz
  1  'x, y, z'
loop_
 _atom_site_type_symbol
 _atom_site_label
 _atom_site_symmetry_multiplicity
 _atom_site_fract_x
 _atom_site_fract_y
 _atom_site_fract_z
 _atom_site_occupancy
  Ba  Ba0  1  0.50000000  0.00000000  0.85519500  1
  Ba  Ba1  1  0.00000000  0.50000000  0.64480500  1
  Ba  Ba2  1  0.50000000  0.00000000  0.00000000  1
  Ba  Ba3  1  0.00000000  0.50000000  0.35519500  1
  Ba  Ba4  1  0.50000000  0.00000000  0.14480500  1
  Ba  Ba5  1  0.00000000  0.50000000  0.50000000  1
  Sr  Sr6  1  0.00000000  0.50000000  0.78493000  1
  Sr  Sr7  1  0.50000000  0.00000000  0.71507000  1
  Sr  Sr8  1  0.00000000  0.50000000  0.92820600  1
  Sr  Sr9  1  0.50000000  0.00000000  0.57179400  1
  Sr  Sr10  1  0.50000000  0.00000000  0.28493000  1
  Sr  Sr11  1  0.00000000  0.50000000  0.21507000  1
  Sr  Sr12  1  0.50000000  0.00000000  0.42820600  1
  Sr  Sr13  1  0.00000000  0.50000000  0.07179400  1
  O  O14  1  0.00000000  0.00000000  0.64041900  1
  O  O15  1  0.50000000  0.50000000  0.85958100  1
  O  O16  1  0.50000000  0.50000000  0.00000000  1
  O  O17  1  0.50000000  0.50000000  0.72237900  1
  O  O18  1  0.00000000  0.00000000  0.77762100  1
  O  O19  1  0.50000000  0.50000000  0.57367900  1
  O  O20  1  0.00000000  0.00000000  0.92632100  1
  O  O21  1  0.50000000  0.50000000  0.14041900  1
  O  O22  1  0.00000000  0.00000000  0.35958100  1
  O  O23  1  0.00000000  0.00000000  0.50000000  1
  O  O24  1  0.00000000  0.00000000  0.22237900  1
  O  O25  1  0.50000000  0.50000000  0.27762100  1
  O  O26  1  0.00000000  0.00000000  0.07367900  1
  O  O27  1  0.50000000  0.50000000  0.42632100  1
