# generated using pymatgen
data_Sr5Ta4O15
_symmetry_space_group_name_H-M   'P 1'
_cell_length_a   5.70889603
_cell_length_b   5.70889603
_cell_length_c   23.31537300
_cell_angle_alpha   90.00000000
_cell_angle_beta   90.00000000
_cell_angle_gamma   120.00000000
_symmetry_Int_Tables_number   1
_chemical_formula_structural   Sr5Ta4O15
_chemical_formula_sum   'Sr10 Ta8 O30'
_cell_volume   658.07784064
_cell_formula_units_Z   2
loop_
 _symmetry_equiv_pos_site_id
 _symmetry_equiv_pos_as_xyz
  1  'x, y, z'
loop_
 _atom_site_type_symbol
 _atom_site_label
 _atom_site_symmetry_multiplicity
 _atom_site_fract_x
 _atom_site_fract_y
 _atom_site_fract_z
 _atom_site_occupancy
  Sr  Sr0  1  0.33333333  0.66666667  0.63865400  1
  Sr  Sr1  1  0.33333333  0.66666667  0.97192700  1
  Sr  Sr2  1  0.00000000  0.00000000  0.75000000  1
  Sr  Sr3  1  0.00000000  0.00000000  0.25000000  1
  Sr  Sr4  1  0.33333333  0.66666667  0.47192700  1
  Sr  Sr5  1  0.33333333  0.66666667  0.13865400  1
  Sr  Sr6  1  0.66666667  0.33333333  0.52807300  1
  Sr  Sr7  1  0.66666667  0.33333333  0.86134600  1
  Sr  Sr8  1  0.66666667  0.33333333  0.02807300  1
  Sr  Sr9  1  0.66666667  0.33333333  0.36134600  1
  Ta  Ta10  1  0.33333333  0.66666667  0.80186500  1
  Ta  Ta11  1  0.00000000  0.00000000  0.59276800  1
  Ta  Ta12  1  0.00000000  0.00000000  0.90723200  1
  Ta  Ta13  1  0.00000000  0.00000000  0.09276800  1
  Ta  Ta14  1  0.00000000  0.00000000  0.40723200  1
  Ta  Ta15  1  0.33333333  0.66666667  0.30186500  1
  Ta  Ta16  1  0.66666667  0.33333333  0.69813500  1
  Ta  Ta17  1  0.66666667  0.33333333  0.19813500  1
  O  O18  1  0.10133933  0.77022367  0.05586200  1
  O  O19  1  0.12197133  0.79057367  0.84558400  1
  O  O20  1  0.00000000  0.54030650  0.25000000  1
  O  O21  1  0.00000000  0.45969350  0.75000000  1
  O  O22  1  0.20942633  0.87802867  0.34558400  1
  O  O23  1  0.22977633  0.89866067  0.55586200  1
  O  O24  1  0.10133933  0.33111567  0.55586200  1
  O  O25  1  0.12197133  0.33139767  0.34558400  1
  O  O26  1  0.20942633  0.33139767  0.84558400  1
  O  O27  1  0.22977633  0.33111567  0.05586200  1
  O  O28  1  0.33111567  0.22977633  0.44413800  1
  O  O29  1  0.66888433  0.89866067  0.05586200  1
  O  O30  1  0.66860233  0.87802867  0.84558400  1
  O  O31  1  0.33139767  0.20942633  0.65441600  1
  O  O32  1  0.45969350  0.45969350  0.25000000  1
  O  O33  1  0.54030650  0.54030650  0.75000000  1
  O  O34  1  0.66860233  0.79057367  0.34558400  1
  O  O35  1  0.33139767  0.12197133  0.15441600  1
  O  O36  1  0.33111567  0.10133933  0.94413800  1
  O  O37  1  0.66888433  0.77022367  0.55586200  1
  O  O38  1  0.77022367  0.66888433  0.94413800  1
  O  O39  1  0.79057367  0.66860233  0.15441600  1
  O  O40  1  0.45969350  0.00000000  0.75000000  1
  O  O41  1  0.54030650  0.00000000  0.25000000  1
  O  O42  1  0.87802867  0.66860233  0.65441600  1
  O  O43  1  0.89866067  0.66888433  0.44413800  1
  O  O44  1  0.77022367  0.10133933  0.44413800  1
  O  O45  1  0.79057367  0.12197133  0.65441600  1
  O  O46  1  0.87802867  0.20942633  0.15441600  1
  O  O47  1  0.89866067  0.22977633  0.94413800  1
