# generated using pymatgen
data_Li4V3CrO8
_symmetry_space_group_name_H-M   'P 1'
_cell_length_a   5.17703685
_cell_length_b   5.98331146
_cell_length_c   10.78264853
_cell_angle_alpha   106.02238588
_cell_angle_beta   94.59187203
_cell_angle_gamma   106.85091182
_symmetry_Int_Tables_number   1
_chemical_formula_structural   Li4V3CrO8
_chemical_formula_sum   'Li8 V6 Cr2 O16'
_cell_volume   302.55531178
_cell_formula_units_Z   2
loop_
 _symmetry_equiv_pos_site_id
 _symmetry_equiv_pos_as_xyz
  1  'x, y, z'
loop_
 _atom_site_type_symbol
 _atom_site_label
 _atom_site_symmetry_multiplicity
 _atom_site_fract_x
 _atom_site_fract_y
 _atom_site_fract_z
 _atom_site_occupancy
  Li  Li0  1  0.87591068  0.56350627  0.12630794  1
  Li  Li1  1  0.12694017  0.93899033  0.87313549  1
  Li  Li2  1  0.62415077  0.18559134  0.37411669  1
  Li  Li3  1  0.37584923  0.81440866  0.62588331  1
  Li  Li4  1  0.87305983  0.06100967  0.12686451  1
  Li  Li5  1  0.12408932  0.43649373  0.87369206  1
  Li  Li6  1  0.62705203  0.69116108  0.37355791  1
  Li  Li7  1  0.37294796  0.30883892  0.62644209  1
  V  V8  1  0.49852643  0.74957306  0.00009487  1
  V  V9  1  0.24998742  0.37546097  0.25025847  1
  V  V10  1  0.00000000  0.00000000  0.50000000  1
  V  V11  1  0.50147357  0.25042694  0.99990513  1
  V  V12  1  0.75001258  0.62453903  0.74974153  1
  V  V13  1  0.00000000  0.50000000  0.50000000  1
  Cr  Cr14  1  0.25084269  0.87692011  0.25012371  1
  Cr  Cr15  1  0.74915730  0.12307989  0.74987629  1
  O  O16  1  0.70575305  0.15510117  0.56607193  1
  O  O17  1  0.29199702  0.33964433  0.43594377  1
  O  O18  1  0.20565409  0.40897667  0.06494431  1
  O  O19  1  0.79434591  0.59102333  0.93505569  1
  O  O20  1  0.03890411  0.96247571  0.68818967  1
  O  O21  1  0.45589252  0.78790808  0.81436772  1
  O  O22  1  0.96109588  0.03752429  0.31181033  1
  O  O23  1  0.54410748  0.21209192  0.18563228  1
  O  O24  1  0.70800298  0.66035567  0.56405623  1
  O  O25  1  0.29424695  0.84489883  0.43392807  1
  O  O26  1  0.20860988  0.91042615  0.06544922  1
  O  O27  1  0.79139012  0.08957385  0.93455078  1
  O  O28  1  0.46062372  0.28604447  0.81257487  1
  O  O29  1  0.95676049  0.54102915  0.31581108  1
  O  O30  1  0.04323951  0.45897085  0.68418892  1
  O  O31  1  0.53937628  0.71395553  0.18742513  1
