# generated using pymatgen
data_Y2(SeO4)3
_symmetry_space_group_name_H-M   'P 1'
_cell_length_a   7.12556800
_cell_length_b   11.66775400
_cell_length_c   11.33435204
_cell_angle_alpha   90.00000000
_cell_angle_beta   108.06128216
_cell_angle_gamma   90.00000000
_symmetry_Int_Tables_number   1
_chemical_formula_structural   Y2(SeO4)3
_chemical_formula_sum   'Y8 Se12 O48'
_cell_volume   895.89801105
_cell_formula_units_Z   4
loop_
 _symmetry_equiv_pos_site_id
 _symmetry_equiv_pos_as_xyz
  1  'x, y, z'
loop_
 _atom_site_type_symbol
 _atom_site_label
 _atom_site_symmetry_multiplicity
 _atom_site_fract_x
 _atom_site_fract_y
 _atom_site_fract_z
 _atom_site_occupancy
  Y  Y0  1  0.17455000  0.12486700  0.59408500  1
  Y  Y1  1  0.17455000  0.87513300  0.09408500  1
  Y  Y2  1  0.82545000  0.12486700  0.90591500  1
  Y  Y3  1  0.82545000  0.87513300  0.40591500  1
  Y  Y4  1  0.67455000  0.62486700  0.59408500  1
  Y  Y5  1  0.67455000  0.37513300  0.09408500  1
  Y  Y6  1  0.32545000  0.62486700  0.90591500  1
  Y  Y7  1  0.32545000  0.37513300  0.40591500  1
  Se  Se8  1  0.33240750  0.11920850  0.92214200  1
  Se  Se9  1  0.33240750  0.88079150  0.42214200  1
  Se  Se10  1  0.50000000  0.36790200  0.75000000  1
  Se  Se11  1  0.50000000  0.63209800  0.25000000  1
  Se  Se12  1  0.66759250  0.11920850  0.57785800  1
  Se  Se13  1  0.66759250  0.88079150  0.07785800  1
  Se  Se14  1  0.83240750  0.61920850  0.92214200  1
  Se  Se15  1  0.83240750  0.38079150  0.42214200  1
  Se  Se16  1  0.00000000  0.86790200  0.75000000  1
  Se  Se17  1  0.00000000  0.13209800  0.25000000  1
  Se  Se18  1  0.16759250  0.61920850  0.57785800  1
  Se  Se19  1  0.16759250  0.38079150  0.07785800  1
  O  O20  1  0.32238200  0.05421000  0.78866000  1
  O  O21  1  0.79214550  0.79272650  0.71129300  1
  O  O22  1  0.50667050  0.44807750  0.87680100  1
  O  O23  1  0.34298300  0.96598700  0.54088400  1
  O  O24  1  0.54369400  0.19934600  0.95638500  1
  O  O25  1  0.37629750  0.69517250  0.60881400  1
  O  O26  1  0.32238200  0.94579000  0.28866000  1
  O  O27  1  0.62370250  0.69517250  0.89118600  1
  O  O28  1  0.45630600  0.19934600  0.54361500  1
  O  O29  1  0.65701700  0.96598700  0.95911600  1
  O  O30  1  0.49332950  0.44807750  0.62319900  1
  O  O31  1  0.79214550  0.20727350  0.21129300  1
  O  O32  1  0.20785450  0.79272650  0.78870700  1
  O  O33  1  0.50667050  0.55192250  0.37680100  1
  O  O34  1  0.34298300  0.03401300  0.04088400  1
  O  O35  1  0.54369400  0.80065400  0.45638500  1
  O  O36  1  0.37629750  0.30482750  0.10881400  1
  O  O37  1  0.67761800  0.05421000  0.71134000  1
  O  O38  1  0.62370250  0.30482750  0.39118600  1
  O  O39  1  0.45630600  0.80065400  0.04361500  1
  O  O40  1  0.65701700  0.03401300  0.45911600  1
  O  O41  1  0.49332950  0.55192250  0.12319900  1
  O  O42  1  0.20785450  0.20727350  0.28870700  1
  O  O43  1  0.67761800  0.94579000  0.21134000  1
  O  O44  1  0.82238200  0.55421000  0.78866000  1
  O  O45  1  0.29214550  0.29272650  0.71129300  1
  O  O46  1  0.00667050  0.94807750  0.87680100  1
  O  O47  1  0.84298300  0.46598700  0.54088400  1
  O  O48  1  0.04369400  0.69934600  0.95638500  1
  O  O49  1  0.87629750  0.19517250  0.60881400  1
  O  O50  1  0.82238200  0.44579000  0.28866000  1
  O  O51  1  0.12370250  0.19517250  0.89118600  1
  O  O52  1  0.95630600  0.69934600  0.54361500  1
  O  O53  1  0.15701700  0.46598700  0.95911600  1
  O  O54  1  0.99332950  0.94807750  0.62319900  1
  O  O55  1  0.29214550  0.70727350  0.21129300  1
  O  O56  1  0.70785450  0.29272650  0.78870700  1
  O  O57  1  0.00667050  0.05192250  0.37680100  1
  O  O58  1  0.84298300  0.53401300  0.04088400  1
  O  O59  1  0.04369400  0.30065400  0.45638500  1
  O  O60  1  0.87629750  0.80482750  0.10881400  1
  O  O61  1  0.17761800  0.55421000  0.71134000  1
  O  O62  1  0.12370250  0.80482750  0.39118600  1
  O  O63  1  0.95630600  0.30065400  0.04361500  1
  O  O64  1  0.15701700  0.53401300  0.45911600  1
  O  O65  1  0.99332950  0.05192250  0.12319900  1
  O  O66  1  0.70785450  0.70727350  0.28870700  1
  O  O67  1  0.17761800  0.44579000  0.21134000  1
