# generated using pymatgen
data_Li3Mg2Fe19O32
_symmetry_space_group_name_H-M   'P 1'
_cell_length_a   10.35859000
_cell_length_b   6.04042400
_cell_length_c   19.97600920
_cell_angle_alpha   90.00000000
_cell_angle_beta   99.61409127
_cell_angle_gamma   90.00000000
_symmetry_Int_Tables_number   1
_chemical_formula_structural   Li3Mg2Fe19O32
_chemical_formula_sum   'Li6 Mg4 Fe38 O64'
_cell_volume   1232.34948512
_cell_formula_units_Z   2
loop_
 _symmetry_equiv_pos_site_id
 _symmetry_equiv_pos_as_xyz
  1  'x, y, z'
loop_
 _atom_site_type_symbol
 _atom_site_label
 _atom_site_symmetry_multiplicity
 _atom_site_fract_x
 _atom_site_fract_y
 _atom_site_fract_z
 _atom_site_occupancy
  Li  Li0  1  0.12929600  0.00000000  0.37650100  1
  Li  Li1  1  0.87673100  0.00000000  0.62458100  1
  Li  Li2  1  0.62660200  0.00000000  0.87353500  1
  Li  Li3  1  0.62929600  0.50000000  0.37650100  1
  Li  Li4  1  0.37673100  0.50000000  0.62458100  1
  Li  Li5  1  0.12660200  0.50000000  0.87353500  1
  Mg  Mg6  1  0.84221800  0.00000000  0.02720400  1
  Mg  Mg7  1  0.60102900  0.00000000  0.28518700  1
  Mg  Mg8  1  0.34221800  0.50000000  0.02720400  1
  Mg  Mg9  1  0.10102900  0.50000000  0.28518700  1
  Fe  Fe10  1  0.37733600  0.00000000  0.12561800  1
  Fe  Fe11  1  0.50128900  0.00000000  0.99924700  1
  Fe  Fe12  1  0.90686200  0.00000000  0.22288200  1
  Fe  Fe13  1  0.62349300  0.24812400  0.12567300  1
  Fe  Fe14  1  0.62349300  0.75187600  0.12567300  1
  Fe  Fe15  1  0.25052500  0.00000000  0.25744400  1
  Fe  Fe16  1  0.65071200  0.00000000  0.47055400  1
  Fe  Fe17  1  0.62664350  0.74935050  0.62474500  1
  Fe  Fe18  1  0.37577250  0.24853250  0.37654200  1
  Fe  Fe19  1  0.37577250  0.75146750  0.37654200  1
  Fe  Fe20  1  0.62664350  0.25064950  0.62474500  1
  Fe  Fe21  1  0.35365700  0.00000000  0.53166000  1
  Fe  Fe22  1  0.00257000  0.00000000  0.49998400  1
  Fe  Fe23  1  0.74954700  0.00000000  0.74886700  1
  Fe  Fe24  1  0.40047800  0.00000000  0.72033200  1
  Fe  Fe25  1  0.37347350  0.74628450  0.87363800  1
  Fe  Fe26  1  0.37347350  0.25371550  0.87363800  1
  Fe  Fe27  1  0.10073400  0.00000000  0.77826900  1
  Fe  Fe28  1  0.15003500  0.00000000  0.96759200  1
  Fe  Fe29  1  0.87733600  0.50000000  0.12561800  1
  Fe  Fe30  1  0.00128900  0.50000000  0.99924700  1
  Fe  Fe31  1  0.40686200  0.50000000  0.22288200  1
  Fe  Fe32  1  0.12349300  0.74812400  0.12567300  1
  Fe  Fe33  1  0.12349300  0.25187600  0.12567300  1
  Fe  Fe34  1  0.75052500  0.50000000  0.25744400  1
  Fe  Fe35  1  0.15071200  0.50000000  0.47055400  1
  Fe  Fe36  1  0.12664350  0.24935050  0.62474500  1
  Fe  Fe37  1  0.87577250  0.74853250  0.37654200  1
  Fe  Fe38  1  0.87577250  0.25146750  0.37654200  1
  Fe  Fe39  1  0.12664350  0.75064950  0.62474500  1
  Fe  Fe40  1  0.85365700  0.50000000  0.53166000  1
  Fe  Fe41  1  0.50257000  0.50000000  0.49998400  1
  Fe  Fe42  1  0.24954700  0.50000000  0.74886700  1
  Fe  Fe43  1  0.90047800  0.50000000  0.72033200  1
  Fe  Fe44  1  0.87347350  0.24628450  0.87363800  1
  Fe  Fe45  1  0.87347350  0.75371550  0.87363800  1
  Fe  Fe46  1  0.60073400  0.50000000  0.77826900  1
  Fe  Fe47  1  0.65003500  0.50000000  0.96759200  1
  O  O48  1  0.44438550  0.22987350  0.06610700  1
  O  O49  1  0.44438550  0.77012650  0.06610700  1
  O  O50  1  0.56137800  0.00000000  0.18157800  1
  O  O51  1  0.67510300  0.00000000  0.06574700  1
  O  O52  1  0.42965800  0.00000000  0.31656000  1
  O  O53  1  0.93773900  0.00000000  0.31816100  1
  O  O54  1  0.07221400  0.00000000  0.18576600  1
  O  O55  1  0.18800000  0.00000000  0.06913400  1
  O  O56  1  0.55492400  0.26017700  0.43782000  1
  O  O57  1  0.30765600  0.76546200  0.18471100  1
  O  O58  1  0.55492400  0.73982300  0.43782000  1
  O  O59  1  0.30765600  0.23453800  0.18471100  1
  O  O60  1  0.70434700  0.26614200  0.31403700  1
  O  O61  1  0.70434700  0.73385800  0.31403700  1
  O  O62  1  0.18282900  0.00000000  0.56473200  1
  O  O63  1  0.31903100  0.00000000  0.43479900  1
  O  O64  1  0.68516500  0.00000000  0.56819500  1
  O  O65  1  0.82104200  0.00000000  0.43687400  1
  O  O66  1  0.30412050  0.26139550  0.68750200  1
  O  O67  1  0.30412050  0.73860450  0.68750200  1
  O  O68  1  0.69673150  0.23975150  0.81163600  1
  O  O69  1  0.44954550  0.73627750  0.56330400  1
  O  O70  1  0.69673150  0.76024850  0.81163600  1
  O  O71  1  0.44954550  0.26372250  0.56330400  1
  O  O72  1  0.81707900  0.00000000  0.92764300  1
  O  O73  1  0.06807300  0.00000000  0.68142100  1
  O  O74  1  0.93157500  0.00000000  0.81258400  1
  O  O75  1  0.43377400  0.00000000  0.81826300  1
  O  O76  1  0.57007700  0.00000000  0.68577300  1
  O  O77  1  0.31975600  0.00000000  0.93660000  1
  O  O78  1  0.55300750  0.23922450  0.93936500  1
  O  O79  1  0.55300750  0.76077550  0.93936500  1
  O  O80  1  0.94438550  0.72987350  0.06610700  1
  O  O81  1  0.94438550  0.27012650  0.06610700  1
  O  O82  1  0.06137800  0.50000000  0.18157800  1
  O  O83  1  0.17510300  0.50000000  0.06574700  1
  O  O84  1  0.92965800  0.50000000  0.31656000  1
  O  O85  1  0.43773900  0.50000000  0.31816100  1
  O  O86  1  0.57221400  0.50000000  0.18576600  1
  O  O87  1  0.68800000  0.50000000  0.06913400  1
  O  O88  1  0.05492400  0.76017700  0.43782000  1
  O  O89  1  0.80765600  0.26546200  0.18471100  1
  O  O90  1  0.05492400  0.23982300  0.43782000  1
  O  O91  1  0.80765600  0.73453800  0.18471100  1
  O  O92  1  0.20434700  0.76614200  0.31403700  1
  O  O93  1  0.20434700  0.23385800  0.31403700  1
  O  O94  1  0.68282900  0.50000000  0.56473200  1
  O  O95  1  0.81903100  0.50000000  0.43479900  1
  O  O96  1  0.18516500  0.50000000  0.56819500  1
  O  O97  1  0.32104200  0.50000000  0.43687400  1
  O  O98  1  0.80412050  0.76139550  0.68750200  1
  O  O99  1  0.80412050  0.23860450  0.68750200  1
  O  O100  1  0.19673150  0.73975150  0.81163600  1
  O  O101  1  0.94954550  0.23627750  0.56330400  1
  O  O102  1  0.19673150  0.26024850  0.81163600  1
  O  O103  1  0.94954550  0.76372250  0.56330400  1
  O  O104  1  0.31707900  0.50000000  0.92764300  1
  O  O105  1  0.56807300  0.50000000  0.68142100  1
  O  O106  1  0.43157500  0.50000000  0.81258400  1
  O  O107  1  0.93377400  0.50000000  0.81826300  1
  O  O108  1  0.07007700  0.50000000  0.68577300  1
  O  O109  1  0.81975600  0.50000000  0.93660000  1
  O  O110  1  0.05300750  0.73922450  0.93936500  1
  O  O111  1  0.05300750  0.26077550  0.93936500  1
