# generated using pymatgen
data_SrCrO3
_symmetry_space_group_name_H-M   'P 1'
_cell_length_a   5.58902400
_cell_length_b   9.56086200
_cell_length_c   9.28272600
_cell_angle_alpha   90.00000000
_cell_angle_beta   90.00000000
_cell_angle_gamma   90.00000000
_symmetry_Int_Tables_number   1
_chemical_formula_structural   SrCrO3
_chemical_formula_sum   'Sr8 Cr8 O24'
_cell_volume   496.03069925
_cell_formula_units_Z   8
loop_
 _symmetry_equiv_pos_site_id
 _symmetry_equiv_pos_as_xyz
  1  'x, y, z'
loop_
 _atom_site_type_symbol
 _atom_site_label
 _atom_site_symmetry_multiplicity
 _atom_site_fract_x
 _atom_site_fract_y
 _atom_site_fract_z
 _atom_site_occupancy
  Sr  Sr0  1  0.50032300  0.16877700  0.25000000  1
  Sr  Sr1  1  0.99999700  0.00000000  0.50000000  1
  Sr  Sr2  1  0.99999700  0.00000000  0.00000000  1
  Sr  Sr3  1  0.50032300  0.83122300  0.75000000  1
  Sr  Sr4  1  0.00032300  0.66877700  0.25000000  1
  Sr  Sr5  1  0.49999700  0.50000000  0.50000000  1
  Sr  Sr6  1  0.49999700  0.50000000  0.00000000  1
  Sr  Sr7  1  0.00032300  0.33122300  0.75000000  1
  Cr  Cr8  1  0.49445450  0.16432350  0.88770700  1
  Cr  Cr9  1  0.49445450  0.16432350  0.61229300  1
  Cr  Cr10  1  0.49445450  0.83567650  0.38770700  1
  Cr  Cr11  1  0.49445450  0.83567650  0.11229300  1
  Cr  Cr12  1  0.99445450  0.66432350  0.88770700  1
  Cr  Cr13  1  0.99445450  0.66432350  0.61229300  1
  Cr  Cr14  1  0.99445450  0.33567650  0.38770700  1
  Cr  Cr15  1  0.99445450  0.33567650  0.11229300  1
  O  O16  1  0.25799900  0.25015400  0.50231300  1
  O  O17  1  0.25799900  0.25015400  0.99768700  1
  O  O18  1  0.26500150  0.08568750  0.75000000  1
  O  O19  1  0.50193700  0.31758000  0.75000000  1
  O  O20  1  0.72751550  0.08972750  0.75000000  1
  O  O21  1  0.25799900  0.74984600  0.49768700  1
  O  O22  1  0.25799900  0.74984600  0.00231300  1
  O  O23  1  0.26500150  0.91431250  0.25000000  1
  O  O24  1  0.50734900  0.00000000  0.50000000  1
  O  O25  1  0.50734900  0.00000000  0.00000000  1
  O  O26  1  0.50193700  0.68242000  0.25000000  1
  O  O27  1  0.72751550  0.91027250  0.25000000  1
  O  O28  1  0.75799900  0.75015400  0.50231300  1
  O  O29  1  0.75799900  0.75015400  0.99768700  1
  O  O30  1  0.76500150  0.58568750  0.75000000  1
  O  O31  1  0.00193700  0.81758000  0.75000000  1
  O  O32  1  0.22751550  0.58972750  0.75000000  1
  O  O33  1  0.75799900  0.24984600  0.49768700  1
  O  O34  1  0.75799900  0.24984600  0.00231300  1
  O  O35  1  0.76500150  0.41431250  0.25000000  1
  O  O36  1  0.00734900  0.50000000  0.50000000  1
  O  O37  1  0.00734900  0.50000000  0.00000000  1
  O  O38  1  0.00193700  0.18242000  0.25000000  1
  O  O39  1  0.22751550  0.41027250  0.25000000  1
