# generated using pymatgen
data_LiNiPO4
_symmetry_space_group_name_H-M   'P 1'
_cell_length_a   4.90977401
_cell_length_b   7.94524900
_cell_length_c   8.93915701
_cell_angle_alpha   90.00000000
_cell_angle_beta   90.00000000
_cell_angle_gamma   90.00000000
_symmetry_Int_Tables_number   1
_chemical_formula_structural   LiNiPO4
_chemical_formula_sum   'Li4 Ni4 P4 O16'
_cell_volume   348.71094608
_cell_formula_units_Z   4
loop_
 _symmetry_equiv_pos_site_id
 _symmetry_equiv_pos_as_xyz
  1  'x, y, z'
loop_
 _atom_site_type_symbol
 _atom_site_label
 _atom_site_symmetry_multiplicity
 _atom_site_fract_x
 _atom_site_fract_y
 _atom_site_fract_z
 _atom_site_occupancy
  Li  Li0  1  0.93305800  0.55128000  0.61393750  1
  Li  Li1  1  0.43305800  0.94872000  0.11393750  1
  Li  Li2  1  0.93305800  0.05128000  0.88606250  1
  Li  Li3  1  0.43305800  0.44872000  0.38606250  1
  Ni  Ni4  1  0.99802500  0.16664000  0.47424850  1
  Ni  Ni5  1  0.49802500  0.33336000  0.97424850  1
  Ni  Ni6  1  0.99802500  0.66664000  0.02575150  1
  Ni  Ni7  1  0.49802500  0.83336000  0.52575150  1
  P  P8  1  0.56240000  0.72290100  0.85726750  1
  P  P9  1  0.06240000  0.77709900  0.35726750  1
  P  P10  1  0.56240000  0.22290100  0.64273250  1
  P  P11  1  0.06240000  0.27709900  0.14273250  1
  O  O12  1  0.66995100  0.55620600  0.93136950  1
  O  O13  1  0.16995100  0.94379400  0.43136950  1
  O  O14  1  0.66995100  0.05620600  0.56863050  1
  O  O15  1  0.16995100  0.44379400  0.06863050  1
  O  O16  1  0.20404300  0.63879100  0.45656350  1
  O  O17  1  0.70404300  0.86120900  0.95656350  1
  O  O18  1  0.20404300  0.13879100  0.04343650  1
  O  O19  1  0.70404300  0.36120900  0.54343650  1
  O  O20  1  0.25119100  0.74084900  0.85962350  1
  O  O21  1  0.75119100  0.75915100  0.35962350  1
  O  O22  1  0.25119100  0.24084900  0.64037650  1
  O  O23  1  0.75119100  0.25915100  0.14037650  1
  O  O24  1  0.67351200  0.72050800  0.69527450  1
  O  O25  1  0.17351200  0.77949200  0.19527450  1
  O  O26  1  0.67351200  0.22050800  0.80472550  1
  O  O27  1  0.17351200  0.27949200  0.30472550  1
