# generated using pymatgen
data_Zr3N2O3
_symmetry_space_group_name_H-M   'P 1'
_cell_length_a   4.01016200
_cell_length_b   10.83651200
_cell_length_c   10.89214300
_cell_angle_alpha   90.00000000
_cell_angle_beta   90.00000000
_cell_angle_gamma   90.00000000
_symmetry_Int_Tables_number   1
_chemical_formula_structural   Zr3N2O3
_chemical_formula_sum   'Zr12 N8 O12'
_cell_volume   473.33080300
_cell_formula_units_Z   4
loop_
 _symmetry_equiv_pos_site_id
 _symmetry_equiv_pos_as_xyz
  1  'x, y, z'
loop_
 _atom_site_type_symbol
 _atom_site_label
 _atom_site_symmetry_multiplicity
 _atom_site_fract_x
 _atom_site_fract_y
 _atom_site_fract_z
 _atom_site_occupancy
  Zr  Zr0  1  0.50000000  0.36387300  0.06018600  1
  Zr  Zr1  1  0.50000000  0.36446100  0.44619400  1
  Zr  Zr2  1  0.50000000  0.31377900  0.75110200  1
  Zr  Zr3  1  0.00000000  0.18622100  0.25110200  1
  Zr  Zr4  1  0.00000000  0.13553900  0.94619400  1
  Zr  Zr5  1  0.00000000  0.13612700  0.56018600  1
  Zr  Zr6  1  0.00000000  0.86387300  0.06018600  1
  Zr  Zr7  1  0.00000000  0.86446100  0.44619400  1
  Zr  Zr8  1  0.00000000  0.81377900  0.75110200  1
  Zr  Zr9  1  0.50000000  0.68622100  0.25110200  1
  Zr  Zr10  1  0.50000000  0.63553900  0.94619400  1
  Zr  Zr11  1  0.50000000  0.63612700  0.56018600  1
  N  N12  1  0.50000000  0.45300100  0.61480300  1
  N  N13  1  0.00000000  0.29467300  0.42437500  1
  N  N14  1  0.50000000  0.20532700  0.92437500  1
  N  N15  1  0.00000000  0.04699900  0.11480300  1
  N  N16  1  0.00000000  0.95300100  0.61480300  1
  N  N17  1  0.50000000  0.79467300  0.42437500  1
  N  N18  1  0.00000000  0.70532700  0.92437500  1
  N  N19  1  0.50000000  0.54699900  0.11480300  1
  O  O20  1  0.50000000  0.45515900  0.88297800  1
  O  O21  1  0.00000000  0.30724400  0.08032900  1
  O  O22  1  0.00000000  0.24354400  0.74003300  1
  O  O23  1  0.50000000  0.25645600  0.24003300  1
  O  O24  1  0.50000000  0.19275600  0.58032900  1
  O  O25  1  0.00000000  0.04484100  0.38297800  1
  O  O26  1  0.00000000  0.95515900  0.88297800  1
  O  O27  1  0.50000000  0.80724400  0.08032900  1
  O  O28  1  0.50000000  0.74354400  0.74003300  1
  O  O29  1  0.00000000  0.75645600  0.24003300  1
  O  O30  1  0.00000000  0.69275600  0.58032900  1
  O  O31  1  0.50000000  0.54484100  0.38297800  1
