# generated using pymatgen
data_Li2V3CrO8
_symmetry_space_group_name_H-M   'P 1'
_cell_length_a   5.88339400
_cell_length_b   10.25012600
_cell_length_c   9.62214577
_cell_angle_alpha   90.00000000
_cell_angle_beta   90.65605358
_cell_angle_gamma   90.00000000
_symmetry_Int_Tables_number   1
_chemical_formula_structural   Li2V3CrO8
_chemical_formula_sum   'Li8 V12 Cr4 O32'
_cell_volume   580.23055963
_cell_formula_units_Z   4
loop_
 _symmetry_equiv_pos_site_id
 _symmetry_equiv_pos_as_xyz
  1  'x, y, z'
loop_
 _atom_site_type_symbol
 _atom_site_label
 _atom_site_symmetry_multiplicity
 _atom_site_fract_x
 _atom_site_fract_y
 _atom_site_fract_z
 _atom_site_occupancy
  Li  Li0  1  0.49893500  0.83296300  0.10504700  1
  Li  Li1  1  0.49839950  0.50123150  0.00371700  1
  Li  Li2  1  0.99839950  0.99876850  0.50371700  1
  Li  Li3  1  0.99893500  0.66703700  0.60504700  1
  Li  Li4  1  0.99893500  0.33296300  0.10504700  1
  Li  Li5  1  0.99839950  0.00123150  0.00371700  1
  Li  Li6  1  0.49839950  0.49876850  0.50371700  1
  Li  Li7  1  0.49893500  0.16703700  0.60504700  1
  V  V8  1  0.25488950  0.91475350  0.79120500  1
  V  V9  1  0.74096950  0.91712350  0.78497700  1
  V  V10  1  0.49572350  0.67010650  0.78557600  1
  V  V11  1  0.99572350  0.82989350  0.28557600  1
  V  V12  1  0.75488950  0.58524650  0.29120500  1
  V  V13  1  0.24096950  0.58287650  0.28497700  1
  V  V14  1  0.75488950  0.41475350  0.79120500  1
  V  V15  1  0.24096950  0.41712350  0.78497700  1
  V  V16  1  0.99572350  0.17010650  0.78557600  1
  V  V17  1  0.49572350  0.32989350  0.28557600  1
  V  V18  1  0.25488950  0.08524650  0.29120500  1
  V  V19  1  0.74096950  0.08287650  0.28497700  1
  Cr  Cr20  1  0.50065050  0.83134350  0.51457600  1
  Cr  Cr21  1  0.00065050  0.66865650  0.01457600  1
  Cr  Cr22  1  0.00065050  0.33134350  0.51457600  1
  Cr  Cr23  1  0.50065050  0.16865650  0.01457600  1
  O  O24  1  0.24125150  0.91463550  0.39603300  1
  O  O25  1  0.50783300  0.97980200  0.66086000  1
  O  O26  1  0.51775250  0.82853050  0.90044100  1
  O  O27  1  0.49128750  0.50222150  0.68852300  1
  O  O28  1  0.99128750  0.99777850  0.18852300  1
  O  O29  1  0.75151300  0.91671100  0.39538100  1
  O  O30  1  0.28469050  0.75492750  0.66273700  1
  O  O31  1  0.72122700  0.75960400  0.66073100  1
  O  O32  1  0.99472700  0.83749600  0.89627500  1
  O  O33  1  0.49472700  0.66250400  0.39627500  1
  O  O34  1  0.78469050  0.74507250  0.16273700  1
  O  O35  1  0.22122700  0.74039600  0.16073100  1
  O  O36  1  0.01775250  0.67146950  0.40044100  1
  O  O37  1  0.74125150  0.58536450  0.89603300  1
  O  O38  1  0.00783300  0.52019800  0.16086000  1
  O  O39  1  0.25151300  0.58328900  0.89538100  1
  O  O40  1  0.74125150  0.41463550  0.39603300  1
  O  O41  1  0.00783300  0.47980200  0.66086000  1
  O  O42  1  0.01775250  0.32853050  0.90044100  1
  O  O43  1  0.99128750  0.00222150  0.68852300  1
  O  O44  1  0.49128750  0.49777850  0.18852300  1
  O  O45  1  0.25151300  0.41671100  0.39538100  1
  O  O46  1  0.78469050  0.25492750  0.66273700  1
  O  O47  1  0.22122700  0.25960400  0.66073100  1
  O  O48  1  0.49472700  0.33749600  0.89627500  1
  O  O49  1  0.99472700  0.16250400  0.39627500  1
  O  O50  1  0.28469050  0.24507250  0.16273700  1
  O  O51  1  0.72122700  0.24039600  0.16073100  1
  O  O52  1  0.51775250  0.17146950  0.40044100  1
  O  O53  1  0.24125150  0.08536450  0.89603300  1
  O  O54  1  0.50783300  0.02019800  0.16086000  1
  O  O55  1  0.75151300  0.08328900  0.89538100  1
