# generated using pymatgen
data_Na4Be2Si6Sn(HO5)4
_symmetry_space_group_name_H-M   'P 1'
_cell_length_a   20.91334400
_cell_length_b   7.49139600
_cell_length_c   12.14400280
_cell_angle_alpha   90.00000000
_cell_angle_beta   117.37836547
_cell_angle_gamma   90.00000000
_symmetry_Int_Tables_number   1
_chemical_formula_structural   Na4Be2Si6Sn(HO5)4
_chemical_formula_sum   'Na16 Be8 Si24 Sn4 H16 O80'
_cell_volume   1689.49038599
_cell_formula_units_Z   4
loop_
 _symmetry_equiv_pos_site_id
 _symmetry_equiv_pos_as_xyz
  1  'x, y, z'
loop_
 _atom_site_type_symbol
 _atom_site_label
 _atom_site_symmetry_multiplicity
 _atom_site_fract_x
 _atom_site_fract_y
 _atom_site_fract_z
 _atom_site_occupancy
  Na  Na0  1  0.24301200  0.55274000  0.26694600  1
  Na  Na1  1  0.25698800  0.05274000  0.23305400  1
  Na  Na2  1  0.25698800  0.94726000  0.73305400  1
  Na  Na3  1  0.24301200  0.44726000  0.76694600  1
  Na  Na4  1  0.05309450  0.73771050  0.19739200  1
  Na  Na5  1  0.44690550  0.23771050  0.30260800  1
  Na  Na6  1  0.44690550  0.76228950  0.80260800  1
  Na  Na7  1  0.05309450  0.26228950  0.69739200  1
  Na  Na8  1  0.74301200  0.05274000  0.26694600  1
  Na  Na9  1  0.75698800  0.55274000  0.23305400  1
  Na  Na10  1  0.75698800  0.44726000  0.73305400  1
  Na  Na11  1  0.74301200  0.94726000  0.76694600  1
  Na  Na12  1  0.55309450  0.23771050  0.19739200  1
  Na  Na13  1  0.94690550  0.73771050  0.30260800  1
  Na  Na14  1  0.94690550  0.26228950  0.80260800  1
  Na  Na15  1  0.55309450  0.76228950  0.69739200  1
  Be  Be16  1  0.00000000  0.39692400  0.25000000  1
  Be  Be17  1  0.00000000  0.60307600  0.75000000  1
  Be  Be18  1  0.00000000  0.08353400  0.25000000  1
  Be  Be19  1  0.00000000  0.91646600  0.75000000  1
  Be  Be20  1  0.50000000  0.89692400  0.25000000  1
  Be  Be21  1  0.50000000  0.10307600  0.75000000  1
  Be  Be22  1  0.50000000  0.58353400  0.25000000  1
  Be  Be23  1  0.50000000  0.41646600  0.75000000  1
  Si  Si24  1  0.39707850  0.94608450  0.00231000  1
  Si  Si25  1  0.10292150  0.44608450  0.49769000  1
  Si  Si26  1  0.10292150  0.55391550  0.99769000  1
  Si  Si27  1  0.39707850  0.05391550  0.50231000  1
  Si  Si28  1  0.38326500  0.75697800  0.30445200  1
  Si  Si29  1  0.11673500  0.25697800  0.19554800  1
  Si  Si30  1  0.11673500  0.74302200  0.69554800  1
  Si  Si31  1  0.38326500  0.24302200  0.80445200  1
  Si  Si32  1  0.10444800  0.96127800  0.99397000  1
  Si  Si33  1  0.39555200  0.46127800  0.50603000  1
  Si  Si34  1  0.39555200  0.53872200  0.00603000  1
  Si  Si35  1  0.10444800  0.03872200  0.49397000  1
  Si  Si36  1  0.89707850  0.44608450  0.00231000  1
  Si  Si37  1  0.60292150  0.94608450  0.49769000  1
  Si  Si38  1  0.60292150  0.05391550  0.99769000  1
  Si  Si39  1  0.89707850  0.55391550  0.50231000  1
  Si  Si40  1  0.88326500  0.25697800  0.30445200  1
  Si  Si41  1  0.61673500  0.75697800  0.19554800  1
  Si  Si42  1  0.61673500  0.24302200  0.69554800  1
  Si  Si43  1  0.88326500  0.74302200  0.80445200  1
  Si  Si44  1  0.60444800  0.46127800  0.99397000  1
  Si  Si45  1  0.89555200  0.96127800  0.50603000  1
  Si  Si46  1  0.89555200  0.03872200  0.00603000  1
  Si  Si47  1  0.60444800  0.53872200  0.49397000  1
  Sn  Sn48  1  0.25000000  0.75000000  0.00000000  1
  Sn  Sn49  1  0.25000000  0.25000000  0.50000000  1
  Sn  Sn50  1  0.75000000  0.25000000  0.00000000  1
  Sn  Sn51  1  0.75000000  0.75000000  0.50000000  1
  H  H52  1  0.18876550  0.84656650  0.39921600  1
  H  H53  1  0.31123450  0.34656650  0.10078400  1
  H  H54  1  0.31123450  0.65343350  0.60078400  1
  H  H55  1  0.18876550  0.15343350  0.89921600  1
  H  H56  1  0.18473650  0.64072750  0.41322200  1
  H  H57  1  0.31526350  0.14072750  0.08677800  1
  H  H58  1  0.31526350  0.85927250  0.58677800  1
  H  H59  1  0.18473650  0.35927250  0.91322200  1
  H  H60  1  0.68876550  0.34656650  0.39921600  1
  H  H61  1  0.81123450  0.84656650  0.10078400  1
  H  H62  1  0.81123450  0.15343350  0.60078400  1
  H  H63  1  0.68876550  0.65343350  0.89921600  1
  H  H64  1  0.68473650  0.14072750  0.41322200  1
  H  H65  1  0.81526350  0.64072750  0.08677800  1
  H  H66  1  0.81526350  0.35927250  0.58677800  1
  H  H67  1  0.68473650  0.85927250  0.91322200  1
  O  O68  1  0.04314150  0.52181150  0.36682400  1
  O  O69  1  0.45685850  0.02181150  0.13317600  1
  O  O70  1  0.45685850  0.97818850  0.63317600  1
  O  O71  1  0.04314150  0.47818850  0.86682400  1
  O  O72  1  0.18317650  0.95675650  0.99478100  1
  O  O73  1  0.31682350  0.45675650  0.50521900  1
  O  O74  1  0.31682350  0.54324350  0.00521900  1
  O  O75  1  0.18317650  0.04324350  0.49478100  1
  O  O76  1  0.30052150  0.77277750  0.19297900  1
  O  O77  1  0.19947850  0.27277750  0.30702100  1
  O  O78  1  0.19947850  0.72722250  0.80702100  1
  O  O79  1  0.30052150  0.22722250  0.69297900  1
  O  O80  1  0.04071750  0.95946850  0.36833200  1
  O  O81  1  0.45928250  0.45946850  0.13166800  1
  O  O82  1  0.45928250  0.54053150  0.63166800  1
  O  O83  1  0.04071750  0.04053150  0.86833200  1
  O  O84  1  0.08531600  0.75955100  0.02745900  1
  O  O85  1  0.41468400  0.25955100  0.47254100  1
  O  O86  1  0.41468400  0.74044900  0.97254100  1
  O  O87  1  0.08531600  0.24044900  0.52745900  1
  O  O88  1  0.31425400  0.95140700  0.98428200  1
  O  O89  1  0.18574600  0.45140700  0.51571800  1
  O  O90  1  0.18574600  0.54859300  0.01571800  1
  O  O91  1  0.31425400  0.04859300  0.48428200  1
  O  O92  1  0.18152700  0.73368500  0.35254700  1
  O  O93  1  0.31847300  0.23368500  0.14745300  1
  O  O94  1  0.31847300  0.76631500  0.64745300  1
  O  O95  1  0.18152700  0.26631500  0.85254700  1
  O  O96  1  0.44574800  0.74060200  0.26137700  1
  O  O97  1  0.05425200  0.24060200  0.23862300  1
  O  O98  1  0.05425200  0.75939800  0.73862300  1
  O  O99  1  0.44574800  0.25939800  0.76137700  1
  O  O100  1  0.39697550  0.94088250  0.38561500  1
  O  O101  1  0.10302450  0.44088250  0.11438500  1
  O  O102  1  0.10302450  0.55911750  0.61438500  1
  O  O103  1  0.39697550  0.05911750  0.88561500  1
  O  O104  1  0.38313300  0.58016100  0.38349100  1
  O  O105  1  0.11686700  0.08016100  0.11650900  1
  O  O106  1  0.11686700  0.91983900  0.61650900  1
  O  O107  1  0.38313300  0.41983900  0.88349100  1
  O  O108  1  0.54314150  0.02181150  0.36682400  1
  O  O109  1  0.95685850  0.52181150  0.13317600  1
  O  O110  1  0.95685850  0.47818850  0.63317600  1
  O  O111  1  0.54314150  0.97818850  0.86682400  1
  O  O112  1  0.68317650  0.45675650  0.99478100  1
  O  O113  1  0.81682350  0.95675650  0.50521900  1
  O  O114  1  0.81682350  0.04324350  0.00521900  1
  O  O115  1  0.68317650  0.54324350  0.49478100  1
  O  O116  1  0.80052150  0.27277750  0.19297900  1
  O  O117  1  0.69947850  0.77277750  0.30702100  1
  O  O118  1  0.69947850  0.22722250  0.80702100  1
  O  O119  1  0.80052150  0.72722250  0.69297900  1
  O  O120  1  0.54071750  0.45946850  0.36833200  1
  O  O121  1  0.95928250  0.95946850  0.13166800  1
  O  O122  1  0.95928250  0.04053150  0.63166800  1
  O  O123  1  0.54071750  0.54053150  0.86833200  1
  O  O124  1  0.58531600  0.25955100  0.02745900  1
  O  O125  1  0.91468400  0.75955100  0.47254100  1
  O  O126  1  0.91468400  0.24044900  0.97254100  1
  O  O127  1  0.58531600  0.74044900  0.52745900  1
  O  O128  1  0.81425400  0.45140700  0.98428200  1
  O  O129  1  0.68574600  0.95140700  0.51571800  1
  O  O130  1  0.68574600  0.04859300  0.01571800  1
  O  O131  1  0.81425400  0.54859300  0.48428200  1
  O  O132  1  0.68152700  0.23368500  0.35254700  1
  O  O133  1  0.81847300  0.73368500  0.14745300  1
  O  O134  1  0.81847300  0.26631500  0.64745300  1
  O  O135  1  0.68152700  0.76631500  0.85254700  1
  O  O136  1  0.94574800  0.24060200  0.26137700  1
  O  O137  1  0.55425200  0.74060200  0.23862300  1
  O  O138  1  0.55425200  0.25939800  0.73862300  1
  O  O139  1  0.94574800  0.75939800  0.76137700  1
  O  O140  1  0.89697550  0.44088250  0.38561500  1
  O  O141  1  0.60302450  0.94088250  0.11438500  1
  O  O142  1  0.60302450  0.05911750  0.61438500  1
  O  O143  1  0.89697550  0.55911750  0.88561500  1
  O  O144  1  0.88313300  0.08016100  0.38349100  1
  O  O145  1  0.61686700  0.58016100  0.11650900  1
  O  O146  1  0.61686700  0.41983900  0.61650900  1
  O  O147  1  0.88313300  0.91983900  0.88349100  1
