# generated using pymatgen
data_CrH20S2(NO7)2
_symmetry_space_group_name_H-M   'P 1'
_cell_length_a   6.13612200
_cell_length_b   12.89838700
_cell_length_c   9.54288687
_cell_angle_alpha   90.00000000
_cell_angle_beta   107.13147060
_cell_angle_gamma   90.00000000
_symmetry_Int_Tables_number   1
_chemical_formula_structural   CrH20S2(NO7)2
_chemical_formula_sum   'Cr2 H40 S4 N4 O28'
_cell_volume   721.77121760
_cell_formula_units_Z   2
loop_
 _symmetry_equiv_pos_site_id
 _symmetry_equiv_pos_as_xyz
  1  'x, y, z'
loop_
 _atom_site_type_symbol
 _atom_site_label
 _atom_site_symmetry_multiplicity
 _atom_site_fract_x
 _atom_site_fract_y
 _atom_site_fract_z
 _atom_site_occupancy
  Cr  Cr0  1  0.00000000  0.50000000  0.50000000  1
  Cr  Cr1  1  0.00000000  0.00000000  0.00000000  1
  H  H2  1  0.23052800  0.84622400  0.54332400  1
  H  H3  1  0.76947200  0.34622400  0.95667600  1
  H  H4  1  0.76947200  0.15377600  0.45667600  1
  H  H5  1  0.23052800  0.65377600  0.04332400  1
  H  H6  1  0.42132300  0.80630100  0.70519400  1
  H  H7  1  0.57867700  0.30630100  0.79480600  1
  H  H8  1  0.57867700  0.19369900  0.29480600  1
  H  H9  1  0.42132300  0.69369900  0.20519400  1
  H  H10  1  0.51276300  0.87669300  0.58362100  1
  H  H11  1  0.48723700  0.37669300  0.91637900  1
  H  H12  1  0.48723700  0.12330700  0.41637900  1
  H  H13  1  0.51276300  0.62330700  0.08362100  1
  H  H14  1  0.35086800  0.93314400  0.67709000  1
  H  H15  1  0.64913200  0.43314400  0.82291000  1
  H  H16  1  0.64913200  0.06685600  0.32291000  1
  H  H17  1  0.35086800  0.56685600  0.17709000  1
  H  H18  1  0.33730000  0.59322400  0.70694800  1
  H  H19  1  0.66270000  0.09322400  0.79305200  1
  H  H20  1  0.66270000  0.40677600  0.29305200  1
  H  H21  1  0.33730000  0.90677600  0.20694800  1
  H  H22  1  0.10282700  0.62519600  0.74042400  1
  H  H23  1  0.89717300  0.12519600  0.75957600  1
  H  H24  1  0.89717300  0.37480400  0.25957600  1
  H  H25  1  0.10282700  0.87480400  0.24042400  1
  H  H26  1  0.95347900  0.60700000  0.21435900  1
  H  H27  1  0.04652100  0.10700000  0.28564100  1
  H  H28  1  0.04652100  0.39300000  0.78564100  1
  H  H29  1  0.95347900  0.89300000  0.71435900  1
  H  H30  1  0.02675200  0.69067400  0.33932600  1
  H  H31  1  0.97324800  0.19067400  0.16067400  1
  H  H32  1  0.97324800  0.30932600  0.66067400  1
  H  H33  1  0.02675200  0.80932600  0.83932600  1
  H  H34  1  0.34180500  0.43112400  0.41312300  1
  H  H35  1  0.65819500  0.93112400  0.08687700  1
  H  H36  1  0.65819500  0.56887600  0.58687700  1
  H  H37  1  0.34180500  0.06887600  0.91312300  1
  H  H38  1  0.32464900  0.35500900  0.54239500  1
  H  H39  1  0.67535100  0.85500900  0.95760500  1
  H  H40  1  0.67535100  0.64499100  0.45760500  1
  H  H41  1  0.32464900  0.14499100  0.04239500  1
  S  S42  1  0.74840700  0.64304900  0.88892900  1
  S  S43  1  0.25159300  0.14304900  0.61107100  1
  S  S44  1  0.25159300  0.35695100  0.11107100  1
  S  S45  1  0.74840700  0.85695100  0.38892900  1
  N  N46  1  0.37746200  0.86451400  0.62704900  1
  N  N47  1  0.62253800  0.36451400  0.87295100  1
  N  N48  1  0.62253800  0.13548600  0.37295100  1
  N  N49  1  0.37746200  0.63548600  0.12704900  1
  O  O50  1  0.60253900  0.73714000  0.87797500  1
  O  O51  1  0.39746100  0.23714000  0.62202500  1
  O  O52  1  0.39746100  0.26286000  0.12202500  1
  O  O53  1  0.60253900  0.76286000  0.37797500  1
  O  O54  1  0.77142000  0.58865100  0.02964700  1
  O  O55  1  0.22858000  0.08865100  0.47035300  1
  O  O56  1  0.22858000  0.41134900  0.97035300  1
  O  O57  1  0.77142000  0.91134900  0.52964700  1
  O  O58  1  0.63274800  0.57143600  0.76446200  1
  O  O59  1  0.36725200  0.07143600  0.73553800  1
  O  O60  1  0.36725200  0.42856400  0.23553800  1
  O  O61  1  0.63274800  0.92856400  0.26446200  1
  O  O62  1  0.97907400  0.67258200  0.87701700  1
  O  O63  1  0.02092600  0.17258200  0.62298300  1
  O  O64  1  0.02092600  0.32741800  0.12298300  1
  O  O65  1  0.97907400  0.82741800  0.37701700  1
  O  O66  1  0.17165900  0.60576100  0.66229800  1
  O  O67  1  0.82834100  0.10576100  0.83770200  1
  O  O68  1  0.82834100  0.39423900  0.33770200  1
  O  O69  1  0.17165900  0.89423900  0.16229800  1
  O  O70  1  0.05051100  0.61777400  0.31611700  1
  O  O71  1  0.94948900  0.11777400  0.18388300  1
  O  O72  1  0.94948900  0.38222600  0.68388300  1
  O  O73  1  0.05051100  0.88222600  0.81611700  1
  O  O74  1  0.30518100  0.42808400  0.50768100  1
  O  O75  1  0.69481900  0.92808400  0.99231900  1
  O  O76  1  0.69481900  0.57191600  0.49231900  1
  O  O77  1  0.30518100  0.07191600  0.00768100  1
