# generated using pymatgen
data_V2O3
_symmetry_space_group_name_H-M   'P 1'
_cell_length_a   3.77723367
_cell_length_b   12.03636200
_cell_length_c   5.48081738
_cell_angle_alpha   90.00000000
_cell_angle_beta   108.24225728
_cell_angle_gamma   90.00000000
_symmetry_Int_Tables_number   1
_chemical_formula_structural   V2O3
_chemical_formula_sum   'V8 O12'
_cell_volume   236.65724923
_cell_formula_units_Z   4
loop_
 _symmetry_equiv_pos_site_id
 _symmetry_equiv_pos_as_xyz
  1  'x, y, z'
loop_
 _atom_site_type_symbol
 _atom_site_label
 _atom_site_symmetry_multiplicity
 _atom_site_fract_x
 _atom_site_fract_y
 _atom_site_fract_z
 _atom_site_occupancy
  V  V0  1  0.61215350  0.15897600  0.67286250  1
  V  V1  1  0.61215350  0.34102400  0.17286250  1
  V  V2  1  0.84003850  0.45024700  0.71145950  1
  V  V3  1  0.84003850  0.04975300  0.21145950  1
  V  V4  1  0.38784650  0.65897600  0.82713750  1
  V  V5  1  0.38784650  0.84102400  0.32713750  1
  V  V6  1  0.15996150  0.95024700  0.78854050  1
  V  V7  1  0.15996150  0.54975300  0.28854050  1
  O  O8  1  0.93027850  0.60831700  0.91399550  1
  O  O9  1  0.06972150  0.10831700  0.58600450  1
  O  O10  1  0.93027850  0.89168300  0.41399550  1
  O  O11  1  0.06972150  0.39168300  0.08600450  1
  O  O12  1  0.31936850  0.80622000  0.95859250  1
  O  O13  1  0.68063150  0.30622000  0.54140750  1
  O  O14  1  0.31936850  0.69378000  0.45859250  1
  O  O15  1  0.68063150  0.19378000  0.04140750  1
  O  O16  1  0.32568950  0.49510000  0.68151450  1
  O  O17  1  0.67431050  0.99510000  0.81848550  1
  O  O18  1  0.32568950  0.00490000  0.18151450  1
  O  O19  1  0.67431050  0.50490000  0.31848550  1
