# generated using pymatgen
data_Pr3GaO6
_symmetry_space_group_name_H-M   'P 1'
_cell_length_a   9.36856600
_cell_length_b   11.72365200
_cell_length_c   5.67284200
_cell_angle_alpha   90.00000000
_cell_angle_beta   90.00000000
_cell_angle_gamma   90.00000000
_symmetry_Int_Tables_number   1
_chemical_formula_structural   Pr3GaO6
_chemical_formula_sum   'Pr12 Ga4 O24'
_cell_volume   623.06983634
_cell_formula_units_Z   4
loop_
 _symmetry_equiv_pos_site_id
 _symmetry_equiv_pos_as_xyz
  1  'x, y, z'
loop_
 _atom_site_type_symbol
 _atom_site_label
 _atom_site_symmetry_multiplicity
 _atom_site_fract_x
 _atom_site_fract_y
 _atom_site_fract_z
 _atom_site_occupancy
  Pr  Pr0  1  0.19271350  0.89374150  0.52717300  1
  Pr  Pr1  1  0.19271350  0.10625850  0.02717300  1
  Pr  Pr2  1  0.50000000  0.10355900  0.57115700  1
  Pr  Pr3  1  0.50000000  0.89644100  0.07115700  1
  Pr  Pr4  1  0.80728650  0.89374150  0.52717300  1
  Pr  Pr5  1  0.80728650  0.10625850  0.02717300  1
  Pr  Pr6  1  0.69271350  0.39374150  0.52717300  1
  Pr  Pr7  1  0.69271350  0.60625850  0.02717300  1
  Pr  Pr8  1  0.00000000  0.60355900  0.57115700  1
  Pr  Pr9  1  0.00000000  0.39644100  0.07115700  1
  Pr  Pr10  1  0.30728650  0.39374150  0.52717300  1
  Pr  Pr11  1  0.30728650  0.60625850  0.02717300  1
  Ga  Ga12  1  0.50000000  0.30675100  0.99185800  1
  Ga  Ga13  1  0.50000000  0.69324900  0.49185800  1
  Ga  Ga14  1  0.00000000  0.80675100  0.99185800  1
  Ga  Ga15  1  0.00000000  0.19324900  0.49185800  1
  O  O16  1  0.34031750  0.98622450  0.79760900  1
  O  O17  1  0.34031750  0.01377550  0.29760900  1
  O  O18  1  0.34665950  0.23835250  0.82483400  1
  O  O19  1  0.34665950  0.76164750  0.32483400  1
  O  O20  1  0.50000000  0.45602200  0.86146100  1
  O  O21  1  0.50000000  0.28474600  0.31749300  1
  O  O22  1  0.50000000  0.54397800  0.36146100  1
  O  O23  1  0.50000000  0.71525400  0.81749300  1
  O  O24  1  0.65334050  0.23835250  0.82483400  1
  O  O25  1  0.65334050  0.76164750  0.32483400  1
  O  O26  1  0.65968250  0.98622450  0.79760900  1
  O  O27  1  0.65968250  0.01377550  0.29760900  1
  O  O28  1  0.84031750  0.48622450  0.79760900  1
  O  O29  1  0.84031750  0.51377550  0.29760900  1
  O  O30  1  0.84665950  0.73835250  0.82483400  1
  O  O31  1  0.84665950  0.26164750  0.32483400  1
  O  O32  1  0.00000000  0.95602200  0.86146100  1
  O  O33  1  0.00000000  0.78474600  0.31749300  1
  O  O34  1  0.00000000  0.04397800  0.36146100  1
  O  O35  1  0.00000000  0.21525400  0.81749300  1
  O  O36  1  0.15334050  0.73835250  0.82483400  1
  O  O37  1  0.15334050  0.26164750  0.32483400  1
  O  O38  1  0.15968250  0.48622450  0.79760900  1
  O  O39  1  0.15968250  0.51377550  0.29760900  1
