# generated using pymatgen
data_Li4Sb(TeO4)3
_symmetry_space_group_name_H-M   'P 1'
_cell_length_a   5.13337100
_cell_length_b   9.11554100
_cell_length_c   5.23523175
_cell_angle_alpha   90.00000000
_cell_angle_beta   94.22167415
_cell_angle_gamma   90.00000000
_symmetry_Int_Tables_number   1
_chemical_formula_structural   Li4Sb(TeO4)3
_chemical_formula_sum   'Li4 Sb1 Te3 O12'
_cell_volume   244.30988581
_cell_formula_units_Z   1
loop_
 _symmetry_equiv_pos_site_id
 _symmetry_equiv_pos_as_xyz
  1  'x, y, z'
loop_
 _atom_site_type_symbol
 _atom_site_label
 _atom_site_symmetry_multiplicity
 _atom_site_fract_x
 _atom_site_fract_y
 _atom_site_fract_z
 _atom_site_occupancy
  Li  Li0  1  0.00000000  0.68249400  0.00000000  1
  Li  Li1  1  0.50000000  0.84911300  0.00000000  1
  Li  Li2  1  0.00000000  0.32255900  0.50000000  1
  Li  Li3  1  0.50000000  0.16741800  0.50000000  1
  Sb  Sb4  1  0.00000000  0.10325500  0.00000000  1
  Te  Te5  1  0.50000000  0.40541100  0.00000000  1
  Te  Te6  1  0.00000000  0.91499800  0.50000000  1
  Te  Te7  1  0.50000000  0.60004300  0.50000000  1
  O  O8  1  0.76426700  0.24903400  0.82020500  1
  O  O9  1  0.71172600  0.56435900  0.85090000  1
  O  O10  1  0.78209000  0.94179400  0.79595700  1
  O  O11  1  0.29042300  0.43768800  0.65380200  1
  O  O12  1  0.20535600  0.07970000  0.68567300  1
  O  O13  1  0.20795600  0.77532100  0.69559300  1
  O  O14  1  0.79204400  0.77532100  0.30440700  1
  O  O15  1  0.79464400  0.07970000  0.31432700  1
  O  O16  1  0.70957700  0.43768800  0.34619800  1
  O  O17  1  0.21791000  0.94179400  0.20404300  1
  O  O18  1  0.28827400  0.56435900  0.14910000  1
  O  O19  1  0.23573300  0.24903400  0.17979500  1
