# generated using pymatgen
data_Er2TiO5
_symmetry_space_group_name_H-M   'P 1'
_cell_length_a   4.07193000
_cell_length_b   10.95152800
_cell_length_c   10.45128600
_cell_angle_alpha   90.00000000
_cell_angle_beta   90.00000000
_cell_angle_gamma   90.00000000
_symmetry_Int_Tables_number   1
_chemical_formula_structural   Er2TiO5
_chemical_formula_sum   'Er8 Ti4 O20'
_cell_volume   466.06313672
_cell_formula_units_Z   4
loop_
 _symmetry_equiv_pos_site_id
 _symmetry_equiv_pos_as_xyz
  1  'x, y, z'
loop_
 _atom_site_type_symbol
 _atom_site_label
 _atom_site_symmetry_multiplicity
 _atom_site_fract_x
 _atom_site_fract_y
 _atom_site_fract_z
 _atom_site_occupancy
  Er  Er0  1  0.50000000  0.35735700  0.43062000  1
  Er  Er1  1  0.50000000  0.35735700  0.06938000  1
  Er  Er2  1  0.00000000  0.14264300  0.56938000  1
  Er  Er3  1  0.00000000  0.14264300  0.93062000  1
  Er  Er4  1  0.00000000  0.85735700  0.43062000  1
  Er  Er5  1  0.00000000  0.85735700  0.06938000  1
  Er  Er6  1  0.50000000  0.64264300  0.56938000  1
  Er  Er7  1  0.50000000  0.64264300  0.93062000  1
  Ti  Ti8  1  0.50000000  0.32685200  0.75000000  1
  Ti  Ti9  1  0.00000000  0.17314800  0.25000000  1
  Ti  Ti10  1  0.00000000  0.82685200  0.75000000  1
  Ti  Ti11  1  0.50000000  0.67314800  0.25000000  1
  O  O12  1  0.50000000  0.44836600  0.87654700  1
  O  O13  1  0.50000000  0.44836600  0.62345300  1
  O  O14  1  0.00000000  0.29153600  0.40975100  1
  O  O15  1  0.00000000  0.29153600  0.09024900  1
  O  O16  1  0.50000000  0.22841400  0.25000000  1
  O  O17  1  0.00000000  0.27158600  0.75000000  1
  O  O18  1  0.50000000  0.20846400  0.59024900  1
  O  O19  1  0.50000000  0.20846400  0.90975100  1
  O  O20  1  0.00000000  0.05163400  0.12345300  1
  O  O21  1  0.00000000  0.05163400  0.37654700  1
  O  O22  1  0.00000000  0.94836600  0.87654700  1
  O  O23  1  0.00000000  0.94836600  0.62345300  1
  O  O24  1  0.50000000  0.79153600  0.40975100  1
  O  O25  1  0.50000000  0.79153600  0.09024900  1
  O  O26  1  0.00000000  0.72841400  0.25000000  1
  O  O27  1  0.50000000  0.77158600  0.75000000  1
  O  O28  1  0.00000000  0.70846400  0.59024900  1
  O  O29  1  0.00000000  0.70846400  0.90975100  1
  O  O30  1  0.50000000  0.55163400  0.12345300  1
  O  O31  1  0.50000000  0.55163400  0.37654700  1
