# generated using pymatgen
data_LiSnPO4
_symmetry_space_group_name_H-M   'P 1'
_cell_length_a   14.55274327
_cell_length_b   14.55274327
_cell_length_c   9.97055205
_cell_angle_alpha   90.00000000
_cell_angle_beta   90.00000000
_cell_angle_gamma   120.00000000
_symmetry_Int_Tables_number   1
_chemical_formula_structural   LiSnPO4
_chemical_formula_sum   'Li18 Sn18 P18 O72'
_cell_volume   1828.68782140
_cell_formula_units_Z   18
loop_
 _symmetry_equiv_pos_site_id
 _symmetry_equiv_pos_as_xyz
  1  'x, y, z'
loop_
 _atom_site_type_symbol
 _atom_site_label
 _atom_site_symmetry_multiplicity
 _atom_site_fract_x
 _atom_site_fract_y
 _atom_site_fract_z
 _atom_site_occupancy
  Li  Li0  1  0.55174433  0.69302467  0.58074767  1
  Li  Li1  1  0.80073233  0.99685667  0.41563267  1
  Li  Li2  1  0.00314333  0.80387567  0.41563267  1
  Li  Li3  1  0.14128033  0.44825567  0.58074767  1
  Li  Li4  1  0.19612433  0.19926767  0.41563267  1
  Li  Li5  1  0.30697533  0.85871967  0.58074767  1
  Li  Li6  1  0.21841100  0.02635800  0.91408100  1
  Li  Li7  1  0.46739900  0.33019000  0.74896600  1
  Li  Li8  1  0.66981000  0.13720900  0.74896600  1
  Li  Li9  1  0.80794700  0.78158900  0.91408100  1
  Li  Li10  1  0.86279100  0.53260100  0.74896600  1
  Li  Li11  1  0.97364200  0.19205300  0.91408100  1
  Li  Li12  1  0.88507767  0.35969133  0.24741433  1
  Li  Li13  1  0.13406567  0.66352333  0.08229933  1
  Li  Li14  1  0.33647667  0.47054233  0.08229933  1
  Li  Li15  1  0.47461367  0.11492233  0.24741433  1
  Li  Li16  1  0.52945767  0.86593433  0.08229933  1
  Li  Li17  1  0.64030867  0.52538633  0.24741433  1
  Sn  Sn18  1  0.81385467  0.79558633  0.24134433  1
  Sn  Sn19  1  0.79013100  0.97750100  0.75142300  1
  Sn  Sn20  1  0.98173167  0.18614533  0.24134433  1
  Sn  Sn21  1  0.02249900  0.81263000  0.75142300  1
  Sn  Sn22  1  0.20441367  0.01826833  0.24134433  1
  Sn  Sn23  1  0.18737000  0.20986900  0.75142300  1
  Sn  Sn24  1  0.48052133  0.12891967  0.57467767  1
  Sn  Sn25  1  0.45679767  0.31083433  0.08475633  1
  Sn  Sn26  1  0.64839833  0.51947867  0.57467767  1
  Sn  Sn27  1  0.68916567  0.14596333  0.08475633  1
  Sn  Sn28  1  0.87108033  0.35160167  0.57467767  1
  Sn  Sn29  1  0.85403667  0.54320233  0.08475633  1
  Sn  Sn30  1  0.14718800  0.46225300  0.90801100  1
  Sn  Sn31  1  0.12346433  0.64416767  0.41808967  1
  Sn  Sn32  1  0.31506500  0.85281200  0.90801100  1
  Sn  Sn33  1  0.35583233  0.47929667  0.41808967  1
  Sn  Sn34  1  0.53774700  0.68493500  0.90801100  1
  Sn  Sn35  1  0.52070333  0.87653567  0.41808967  1
  P  P36  1  0.69026567  0.13705733  0.41552433  1
  P  P37  1  0.79792733  0.79703067  0.58341367  1
  P  P38  1  0.86294267  0.55320833  0.41552433  1
  P  P39  1  0.99910333  0.20207267  0.58341367  1
  P  P40  1  0.20296933  0.00089667  0.58341367  1
  P  P41  1  0.44679167  0.30973433  0.41552433  1
  P  P42  1  0.35693233  0.47039067  0.74885767  1
  P  P43  1  0.46459400  0.13036400  0.91674700  1
  P  P44  1  0.52960933  0.88654167  0.74885767  1
  P  P45  1  0.66577000  0.53540600  0.91674700  1
  P  P46  1  0.86963600  0.33423000  0.91674700  1
  P  P47  1  0.11345833  0.64306767  0.74885767  1
  P  P48  1  0.02359900  0.80372400  0.08219100  1
  P  P49  1  0.13126067  0.46369733  0.25008033  1
  P  P50  1  0.19627600  0.21987500  0.08219100  1
  P  P51  1  0.33243667  0.86873933  0.25008033  1
  P  P52  1  0.53630267  0.66756333  0.25008033  1
  P  P53  1  0.78012500  0.97640100  0.08219100  1
  O  O54  1  0.55467900  0.79963600  0.70130200  1
  O  O55  1  0.68822767  0.02882533  0.41743033  1
  O  O56  1  0.77889033  0.21789667  0.32122467  1
  O  O57  1  0.68819767  0.69161233  0.58673533  1
  O  O58  1  0.80789667  0.95491633  0.22807733  1
  O  O59  1  0.78210333  0.56099367  0.32122467  1
  O  O60  1  0.77676733  0.89027367  0.55081067  1
  O  O61  1  0.86959233  0.79132467  0.47306567  1
  O  O62  1  0.92173233  0.13040767  0.47306567  1
  O  O63  1  0.85129333  0.81778867  0.72407267  1
  O  O64  1  0.97117467  0.65940233  0.41743033  1
  O  O65  1  0.96649533  0.14870667  0.72407267  1
  O  O66  1  0.04508367  0.85298033  0.22807733  1
  O  O67  1  0.00341467  0.31180233  0.58673533  1
  O  O68  1  0.14701967  0.19210333  0.22807733  1
  O  O69  1  0.10972633  0.88649367  0.55081067  1
  O  O70  1  0.11350633  0.22323267  0.55081067  1
  O  O71  1  0.20867533  0.07826767  0.47306567  1
  O  O72  1  0.18221133  0.03350467  0.72407267  1
  O  O73  1  0.24495700  0.44532100  0.70130200  1
  O  O74  1  0.20036400  0.75504300  0.70130200  1
  O  O75  1  0.34059767  0.31177233  0.41743033  1
  O  O76  1  0.30838767  0.99658533  0.58673533  1
  O  O77  1  0.43900633  0.22110967  0.32122467  1
  O  O78  1  0.22134567  0.13296933  0.03463533  1
  O  O79  1  0.35489433  0.36215867  0.75076367  1
  O  O80  1  0.44555700  0.55123000  0.65455800  1
  O  O81  1  0.35486433  0.02494567  0.92006867  1
  O  O82  1  0.47456333  0.28824967  0.56141067  1
  O  O83  1  0.44877000  0.89432700  0.65455800  1
  O  O84  1  0.44343400  0.22360700  0.88414400  1
  O  O85  1  0.53625900  0.12465800  0.80639900  1
  O  O86  1  0.58839900  0.46374100  0.80639900  1
  O  O87  1  0.51796000  0.15112200  0.05740600  1
  O  O88  1  0.63784133  0.99273567  0.75076367  1
  O  O89  1  0.63316200  0.48204000  0.05740600  1
  O  O90  1  0.71175033  0.18631367  0.56141067  1
  O  O91  1  0.67008133  0.64513567  0.92006867  1
  O  O92  1  0.81368633  0.52543667  0.56141067  1
  O  O93  1  0.77639300  0.21982700  0.88414400  1
  O  O94  1  0.78017300  0.55656600  0.88414400  1
  O  O95  1  0.87534200  0.41160100  0.80639900  1
  O  O96  1  0.84887800  0.36683800  0.05740600  1
  O  O97  1  0.91162367  0.77865433  0.03463533  1
  O  O98  1  0.86703067  0.08837633  0.03463533  1
  O  O99  1  0.00726433  0.64510567  0.75076367  1
  O  O100  1  0.97505433  0.32991867  0.92006867  1
  O  O101  1  0.10567300  0.55444300  0.65455800  1
  O  O102  1  0.88801233  0.46630267  0.36796867  1
  O  O103  1  0.02156100  0.69549200  0.08409700  1
  O  O104  1  0.11222367  0.88456333  0.98789133  1
  O  O105  1  0.02153100  0.35827900  0.25340200  1
  O  O106  1  0.14123000  0.62158300  0.89474400  1
  O  O107  1  0.11543667  0.22766033  0.98789133  1
  O  O108  1  0.11010067  0.55694033  0.21747733  1
  O  O109  1  0.20292567  0.45799133  0.13973233  1
  O  O110  1  0.25506567  0.79707433  0.13973233  1
  O  O111  1  0.18462667  0.48445533  0.39073933  1
  O  O112  1  0.30450800  0.32606900  0.08409700  1
  O  O113  1  0.29982867  0.81537333  0.39073933  1
  O  O114  1  0.37841700  0.51964700  0.89474400  1
  O  O115  1  0.33674800  0.97846900  0.25340200  1
  O  O116  1  0.48035300  0.85877000  0.89474400  1
  O  O117  1  0.44305967  0.55316033  0.21747733  1
  O  O118  1  0.44683967  0.88989933  0.21747733  1
  O  O119  1  0.54200867  0.74493433  0.13973233  1
  O  O120  1  0.51554467  0.70017133  0.39073933  1
  O  O121  1  0.57829033  0.11198767  0.36796867  1
  O  O122  1  0.53369733  0.42170967  0.36796867  1
  O  O123  1  0.67393100  0.97843900  0.08409700  1
  O  O124  1  0.64172100  0.66325200  0.25340200  1
  O  O125  1  0.77233967  0.88777633  0.98789133  1
