# generated using pymatgen
data_Na2Ca3B5H2S2ClO18
_symmetry_space_group_name_H-M   'P 1'
_cell_length_a   10.23162000
_cell_length_b   7.91774000
_cell_length_c   18.98177295
_cell_angle_alpha   90.00000000
_cell_angle_beta   93.15342256
_cell_angle_gamma   90.00000000
_symmetry_Int_Tables_number   1
_chemical_formula_structural   Na2Ca3B5H2S2ClO18
_chemical_formula_sum   'Na8 Ca12 B20 H8 S8 Cl4 O72'
_cell_volume   1535.40981176
_cell_formula_units_Z   4
loop_
 _symmetry_equiv_pos_site_id
 _symmetry_equiv_pos_as_xyz
  1  'x, y, z'
loop_
 _atom_site_type_symbol
 _atom_site_label
 _atom_site_symmetry_multiplicity
 _atom_site_fract_x
 _atom_site_fract_y
 _atom_site_fract_z
 _atom_site_occupancy
  Na  Na0  1  0.34938250  0.23121950  0.92189700  1
  Na  Na1  1  0.65061750  0.23121950  0.57810300  1
  Na  Na2  1  0.65061750  0.76878050  0.07810300  1
  Na  Na3  1  0.34938250  0.76878050  0.42189700  1
  Na  Na4  1  0.84938250  0.73121950  0.92189700  1
  Na  Na5  1  0.15061750  0.73121950  0.57810300  1
  Na  Na6  1  0.15061750  0.26878050  0.07810300  1
  Na  Na7  1  0.84938250  0.26878050  0.42189700  1
  Ca  Ca8  1  0.50000000  0.11003500  0.75000000  1
  Ca  Ca9  1  0.50000000  0.88996500  0.25000000  1
  Ca  Ca10  1  0.58675050  0.75906950  0.59708200  1
  Ca  Ca11  1  0.41324950  0.75906950  0.90291800  1
  Ca  Ca12  1  0.41324950  0.24093050  0.40291800  1
  Ca  Ca13  1  0.58675050  0.24093050  0.09708200  1
  Ca  Ca14  1  0.00000000  0.61003500  0.75000000  1
  Ca  Ca15  1  0.00000000  0.38996500  0.25000000  1
  Ca  Ca16  1  0.08675050  0.25906950  0.59708200  1
  Ca  Ca17  1  0.91324950  0.25906950  0.90291800  1
  Ca  Ca18  1  0.91324950  0.74093050  0.40291800  1
  Ca  Ca19  1  0.08675050  0.74093050  0.09708200  1
  B  B20  1  0.16968250  0.01602950  0.81812700  1
  B  B21  1  0.83031750  0.01602950  0.68187300  1
  B  B22  1  0.83031750  0.98397050  0.18187300  1
  B  B23  1  0.16968250  0.98397050  0.31812700  1
  B  B24  1  0.73756000  0.76866800  0.74845900  1
  B  B25  1  0.26244000  0.76866800  0.75154100  1
  B  B26  1  0.26244000  0.23133200  0.25154100  1
  B  B27  1  0.73756000  0.23133200  0.24845900  1
  B  B28  1  0.50000000  0.68927200  0.75000000  1
  B  B29  1  0.50000000  0.31072800  0.25000000  1
  B  B30  1  0.66968250  0.51602950  0.81812700  1
  B  B31  1  0.33031750  0.51602950  0.68187300  1
  B  B32  1  0.33031750  0.48397050  0.18187300  1
  B  B33  1  0.66968250  0.48397050  0.31812700  1
  B  B34  1  0.23756000  0.26866800  0.74845900  1
  B  B35  1  0.76244000  0.26866800  0.75154100  1
  B  B36  1  0.76244000  0.73133200  0.25154100  1
  B  B37  1  0.23756000  0.73133200  0.24845900  1
  B  B38  1  0.00000000  0.18927200  0.75000000  1
  B  B39  1  0.00000000  0.81072800  0.25000000  1
  H  H40  1  0.84335100  0.96285200  0.57572200  1
  H  H41  1  0.15664900  0.96285200  0.92427800  1
  H  H42  1  0.15664900  0.03714800  0.42427800  1
  H  H43  1  0.84335100  0.03714800  0.07572200  1
  H  H44  1  0.34335100  0.46285200  0.57572200  1
  H  H45  1  0.65664900  0.46285200  0.92427800  1
  H  H46  1  0.65664900  0.53714800  0.42427800  1
  H  H47  1  0.34335100  0.53714800  0.07572200  1
  S  S48  1  0.36155150  0.02239850  0.57730900  1
  S  S49  1  0.63844850  0.02239850  0.92269100  1
  S  S50  1  0.63844850  0.97760150  0.42269100  1
  S  S51  1  0.36155150  0.97760150  0.07730900  1
  S  S52  1  0.86155150  0.52239850  0.57730900  1
  S  S53  1  0.13844850  0.52239850  0.92269100  1
  S  S54  1  0.13844850  0.47760150  0.42269100  1
  S  S55  1  0.86155150  0.47760150  0.07730900  1
  Cl  Cl56  1  0.00000000  0.00000000  0.00000000  1
  Cl  Cl57  1  0.00000000  0.00000000  0.50000000  1
  Cl  Cl58  1  0.50000000  0.50000000  0.00000000  1
  Cl  Cl59  1  0.50000000  0.50000000  0.50000000  1
  O  O60  1  0.48514900  0.04493200  0.62452700  1
  O  O61  1  0.51485100  0.04493200  0.87547300  1
  O  O62  1  0.51485100  0.95506800  0.37547300  1
  O  O63  1  0.48514900  0.95506800  0.12452700  1
  O  O64  1  0.36161650  0.14442250  0.51931600  1
  O  O65  1  0.63838350  0.14442250  0.98068400  1
  O  O66  1  0.63838350  0.85557750  0.48068400  1
  O  O67  1  0.36161650  0.85557750  0.01931600  1
  O  O68  1  0.24620350  0.04335350  0.62066700  1
  O  O69  1  0.75379650  0.04335350  0.87933300  1
  O  O70  1  0.75379650  0.95664650  0.37933300  1
  O  O71  1  0.24620350  0.95664650  0.12066700  1
  O  O72  1  0.36494050  0.84477050  0.55024000  1
  O  O73  1  0.63505950  0.84477050  0.94976000  1
  O  O74  1  0.63505950  0.15522950  0.44976000  1
  O  O75  1  0.36494050  0.15522950  0.05024000  1
  O  O76  1  0.84107400  0.85845100  0.72555900  1
  O  O77  1  0.15892600  0.85845100  0.77444100  1
  O  O78  1  0.15892600  0.14154900  0.27444100  1
  O  O79  1  0.84107400  0.14154900  0.22555900  1
  O  O80  1  0.27268100  0.13136200  0.78987300  1
  O  O81  1  0.72731900  0.13136200  0.71012700  1
  O  O82  1  0.72731900  0.86863800  0.21012700  1
  O  O83  1  0.27268100  0.86863800  0.28987300  1
  O  O84  1  0.54249700  0.59888300  0.81464600  1
  O  O85  1  0.45750300  0.59888300  0.68535400  1
  O  O86  1  0.45750300  0.40111700  0.18535400  1
  O  O87  1  0.54249700  0.40111700  0.31464600  1
  O  O88  1  0.60869450  0.80660750  0.72840800  1
  O  O89  1  0.39130550  0.80660750  0.77159200  1
  O  O90  1  0.39130550  0.19339250  0.27159200  1
  O  O91  1  0.60869450  0.19339250  0.22840800  1
  O  O92  1  0.22416150  0.97448650  0.88975000  1
  O  O93  1  0.77583850  0.97448650  0.61025000  1
  O  O94  1  0.77583850  0.02551350  0.11025000  1
  O  O95  1  0.22416150  0.02551350  0.38975000  1
  O  O96  1  0.98514900  0.54493200  0.62452700  1
  O  O97  1  0.01485100  0.54493200  0.87547300  1
  O  O98  1  0.01485100  0.45506800  0.37547300  1
  O  O99  1  0.98514900  0.45506800  0.12452700  1
  O  O100  1  0.86161650  0.64442250  0.51931600  1
  O  O101  1  0.13838350  0.64442250  0.98068400  1
  O  O102  1  0.13838350  0.35557750  0.48068400  1
  O  O103  1  0.86161650  0.35557750  0.01931600  1
  O  O104  1  0.74620350  0.54335350  0.62066700  1
  O  O105  1  0.25379650  0.54335350  0.87933300  1
  O  O106  1  0.25379650  0.45664650  0.37933300  1
  O  O107  1  0.74620350  0.45664650  0.12066700  1
  O  O108  1  0.86494050  0.34477050  0.55024000  1
  O  O109  1  0.13505950  0.34477050  0.94976000  1
  O  O110  1  0.13505950  0.65522950  0.44976000  1
  O  O111  1  0.86494050  0.65522950  0.05024000  1
  O  O112  1  0.34107400  0.35845100  0.72555900  1
  O  O113  1  0.65892600  0.35845100  0.77444100  1
  O  O114  1  0.65892600  0.64154900  0.27444100  1
  O  O115  1  0.34107400  0.64154900  0.22555900  1
  O  O116  1  0.77268100  0.63136200  0.78987300  1
  O  O117  1  0.22731900  0.63136200  0.71012700  1
  O  O118  1  0.22731900  0.36863800  0.21012700  1
  O  O119  1  0.77268100  0.36863800  0.28987300  1
  O  O120  1  0.04249700  0.09888300  0.81464600  1
  O  O121  1  0.95750300  0.09888300  0.68535400  1
  O  O122  1  0.95750300  0.90111700  0.18535400  1
  O  O123  1  0.04249700  0.90111700  0.31464600  1
  O  O124  1  0.10869450  0.30660750  0.72840800  1
  O  O125  1  0.89130550  0.30660750  0.77159200  1
  O  O126  1  0.89130550  0.69339250  0.27159200  1
  O  O127  1  0.10869450  0.69339250  0.22840800  1
  O  O128  1  0.72416150  0.47448650  0.88975000  1
  O  O129  1  0.27583850  0.47448650  0.61025000  1
  O  O130  1  0.27583850  0.52551350  0.11025000  1
  O  O131  1  0.72416150  0.52551350  0.38975000  1
