# generated using pymatgen
data_BaNb8O14
_symmetry_space_group_name_H-M   'P 1'
_cell_length_a   10.51710200
_cell_length_b   24.07331400
_cell_length_c   9.58439000
_cell_angle_alpha   90.00000000
_cell_angle_beta   90.00000000
_cell_angle_gamma   90.00000000
_symmetry_Int_Tables_number   1
_chemical_formula_structural   BaNb8O14
_chemical_formula_sum   'Ba8 Nb64 O112'
_cell_volume   2426.59022544
_cell_formula_units_Z   8
loop_
 _symmetry_equiv_pos_site_id
 _symmetry_equiv_pos_as_xyz
  1  'x, y, z'
loop_
 _atom_site_type_symbol
 _atom_site_label
 _atom_site_symmetry_multiplicity
 _atom_site_fract_x
 _atom_site_fract_y
 _atom_site_fract_z
 _atom_site_occupancy
  Ba  Ba0  1  0.25880150  0.36479950  0.49414900  1
  Ba  Ba1  1  0.74119850  0.36479950  0.99414900  1
  Ba  Ba2  1  0.24119850  0.13520050  0.99414900  1
  Ba  Ba3  1  0.75880150  0.13520050  0.49414900  1
  Ba  Ba4  1  0.75880150  0.86479950  0.49414900  1
  Ba  Ba5  1  0.24119850  0.86479950  0.99414900  1
  Ba  Ba6  1  0.74119850  0.63520050  0.99414900  1
  Ba  Ba7  1  0.25880150  0.63520050  0.49414900  1
  Nb  Nb8  1  0.82897900  0.43359900  0.62386100  1
  Nb  Nb9  1  0.17102100  0.43359900  0.12386100  1
  Nb  Nb10  1  0.67439250  0.43293150  0.37425400  1
  Nb  Nb11  1  0.32560750  0.43293150  0.87425400  1
  Nb  Nb12  1  0.58881350  0.37928450  0.61778500  1
  Nb  Nb13  1  0.41118650  0.37928450  0.11778500  1
  Nb  Nb14  1  0.08545500  0.37635200  0.88217300  1
  Nb  Nb15  1  0.91454500  0.37635200  0.38217300  1
  Nb  Nb16  1  0.82348450  0.31758750  0.62220200  1
  Nb  Nb17  1  0.32533050  0.31699050  0.87495600  1
  Nb  Nb18  1  0.67466950  0.31699050  0.37495600  1
  Nb  Nb19  1  0.17651550  0.31758750  0.12220200  1
  Nb  Nb20  1  0.06475650  0.25353050  0.63703200  1
  Nb  Nb21  1  0.93524350  0.25353050  0.13703200  1
  Nb  Nb22  1  0.56475650  0.24646950  0.63703200  1
  Nb  Nb23  1  0.43524350  0.24646950  0.13703200  1
  Nb  Nb24  1  0.17466950  0.18300950  0.37495600  1
  Nb  Nb25  1  0.32348450  0.18241250  0.62220200  1
  Nb  Nb26  1  0.82533050  0.18300950  0.87495600  1
  Nb  Nb27  1  0.67651550  0.18241250  0.12220200  1
  Nb  Nb28  1  0.58545500  0.12364800  0.88217300  1
  Nb  Nb29  1  0.91118650  0.12071550  0.11778500  1
  Nb  Nb30  1  0.41454500  0.12364800  0.38217300  1
  Nb  Nb31  1  0.08881350  0.12071550  0.61778500  1
  Nb  Nb32  1  0.67102100  0.06640100  0.12386100  1
  Nb  Nb33  1  0.17439250  0.06706850  0.37425400  1
  Nb  Nb34  1  0.32897900  0.06640100  0.62386100  1
  Nb  Nb35  1  0.82560750  0.06706850  0.87425400  1
  Nb  Nb36  1  0.59031700  0.00000000  0.61661000  1
  Nb  Nb37  1  0.08894500  0.00000000  0.88323900  1
  Nb  Nb38  1  0.91105500  0.00000000  0.38323900  1
  Nb  Nb39  1  0.40968300  0.00000000  0.11661000  1
  Nb  Nb40  1  0.32897900  0.93359900  0.62386100  1
  Nb  Nb41  1  0.67102100  0.93359900  0.12386100  1
  Nb  Nb42  1  0.17439250  0.93293150  0.37425400  1
  Nb  Nb43  1  0.82560750  0.93293150  0.87425400  1
  Nb  Nb44  1  0.08881350  0.87928450  0.61778500  1
  Nb  Nb45  1  0.91118650  0.87928450  0.11778500  1
  Nb  Nb46  1  0.58545500  0.87635200  0.88217300  1
  Nb  Nb47  1  0.41454500  0.87635200  0.38217300  1
  Nb  Nb48  1  0.32348450  0.81758750  0.62220200  1
  Nb  Nb49  1  0.82533050  0.81699050  0.87495600  1
  Nb  Nb50  1  0.17466950  0.81699050  0.37495600  1
  Nb  Nb51  1  0.67651550  0.81758750  0.12220200  1
  Nb  Nb52  1  0.56475650  0.75353050  0.63703200  1
  Nb  Nb53  1  0.43524350  0.75353050  0.13703200  1
  Nb  Nb54  1  0.06475650  0.74646950  0.63703200  1
  Nb  Nb55  1  0.93524350  0.74646950  0.13703200  1
  Nb  Nb56  1  0.67466950  0.68300950  0.37495600  1
  Nb  Nb57  1  0.82348450  0.68241250  0.62220200  1
  Nb  Nb58  1  0.32533050  0.68300950  0.87495600  1
  Nb  Nb59  1  0.17651550  0.68241250  0.12220200  1
  Nb  Nb60  1  0.08545500  0.62364800  0.88217300  1
  Nb  Nb61  1  0.41118650  0.62071550  0.11778500  1
  Nb  Nb62  1  0.91454500  0.62364800  0.38217300  1
  Nb  Nb63  1  0.58881350  0.62071550  0.61778500  1
  Nb  Nb64  1  0.17102100  0.56640100  0.12386100  1
  Nb  Nb65  1  0.67439250  0.56706850  0.37425400  1
  Nb  Nb66  1  0.82897900  0.56640100  0.62386100  1
  Nb  Nb67  1  0.32560750  0.56706850  0.87425400  1
  Nb  Nb68  1  0.09031700  0.50000000  0.61661000  1
  Nb  Nb69  1  0.58894500  0.50000000  0.88323900  1
  Nb  Nb70  1  0.41105500  0.50000000  0.38323900  1
  Nb  Nb71  1  0.90968300  0.50000000  0.11661000  1
  O  O72  1  0.83682800  0.43718600  0.24381000  1
  O  O73  1  0.66622800  0.43802800  0.75869000  1
  O  O74  1  0.16317200  0.43718600  0.74381000  1
  O  O75  1  0.33377200  0.43802800  0.25869000  1
  O  O76  1  0.00272700  0.43681200  0.50698600  1
  O  O77  1  0.50328050  0.43685350  0.99206200  1
  O  O78  1  0.49671950  0.43685350  0.49206200  1
  O  O79  1  0.99727300  0.43681200  0.00698600  1
  O  O80  1  0.09613650  0.37509150  0.25904000  1
  O  O81  1  0.90386350  0.37509150  0.75904000  1
  O  O82  1  0.59310650  0.37505550  0.24175800  1
  O  O83  1  0.40689350  0.37505550  0.74175800  1
  O  O84  1  0.99850500  0.31347600  0.50874500  1
  O  O85  1  0.00149500  0.31347600  0.00874500  1
  O  O86  1  0.51189550  0.31088850  0.50556500  1
  O  O87  1  0.48810450  0.31088850  0.00556500  1
  O  O88  1  0.83944300  0.31233300  0.24757200  1
  O  O89  1  0.34413850  0.31156450  0.24128700  1
  O  O90  1  0.65586150  0.31156450  0.74128700  1
  O  O91  1  0.16055700  0.31233300  0.74757200  1
  O  O92  1  0.73296950  0.25303150  0.51128200  1
  O  O93  1  0.26703050  0.25303150  0.01128200  1
  O  O94  1  0.58720000  0.25103000  0.24522400  1
  O  O95  1  0.08720000  0.24897000  0.24522400  1
  O  O96  1  0.91280000  0.24897000  0.74522400  1
  O  O97  1  0.41280000  0.25103000  0.74522400  1
  O  O98  1  0.76703050  0.24696850  0.01128200  1
  O  O99  1  0.23296950  0.24696850  0.51128200  1
  O  O100  1  0.84413850  0.18843550  0.24128700  1
  O  O101  1  0.66055700  0.18766700  0.74757200  1
  O  O102  1  0.15586150  0.18843550  0.74128700  1
  O  O103  1  0.33944300  0.18766700  0.24757200  1
  O  O104  1  0.01189550  0.18911150  0.50556500  1
  O  O105  1  0.98810450  0.18911150  0.00556500  1
  O  O106  1  0.49850500  0.18652400  0.50874500  1
  O  O107  1  0.50149500  0.18652400  0.00874500  1
  O  O108  1  0.40386350  0.12490850  0.75904000  1
  O  O109  1  0.59613650  0.12490850  0.25904000  1
  O  O110  1  0.09310650  0.12494450  0.24175800  1
  O  O111  1  0.90689350  0.12494450  0.74175800  1
  O  O112  1  0.50272700  0.06318800  0.50698600  1
  O  O113  1  0.00328050  0.06314650  0.99206200  1
  O  O114  1  0.49727300  0.06318800  0.00698600  1
  O  O115  1  0.99671950  0.06314650  0.49206200  1
  O  O116  1  0.33682800  0.06281400  0.24381000  1
  O  O117  1  0.83377200  0.06197200  0.25869000  1
  O  O118  1  0.66317200  0.06281400  0.74381000  1
  O  O119  1  0.16622800  0.06197200  0.75869000  1
  O  O120  1  0.56938750  0.50000000  0.27043400  1
  O  O121  1  0.25049300  0.00000000  0.49922800  1
  O  O122  1  0.74950700  0.00000000  0.99922800  1
  O  O123  1  0.25012200  0.00000000  0.00125300  1
  O  O124  1  0.43061250  0.50000000  0.77043400  1
  O  O125  1  0.43138800  0.00000000  0.73020700  1
  O  O126  1  0.74987800  0.00000000  0.50125300  1
  O  O127  1  0.56861200  0.00000000  0.23020700  1
  O  O128  1  0.33682800  0.93718600  0.24381000  1
  O  O129  1  0.16622800  0.93802800  0.75869000  1
  O  O130  1  0.66317200  0.93718600  0.74381000  1
  O  O131  1  0.83377200  0.93802800  0.25869000  1
  O  O132  1  0.50272700  0.93681200  0.50698600  1
  O  O133  1  0.00328050  0.93685350  0.99206200  1
  O  O134  1  0.99671950  0.93685350  0.49206200  1
  O  O135  1  0.49727300  0.93681200  0.00698600  1
  O  O136  1  0.59613650  0.87509150  0.25904000  1
  O  O137  1  0.40386350  0.87509150  0.75904000  1
  O  O138  1  0.09310650  0.87505550  0.24175800  1
  O  O139  1  0.90689350  0.87505550  0.74175800  1
  O  O140  1  0.49850500  0.81347600  0.50874500  1
  O  O141  1  0.50149500  0.81347600  0.00874500  1
  O  O142  1  0.01189550  0.81088850  0.50556500  1
  O  O143  1  0.98810450  0.81088850  0.00556500  1
  O  O144  1  0.33944300  0.81233300  0.24757200  1
  O  O145  1  0.84413850  0.81156450  0.24128700  1
  O  O146  1  0.15586150  0.81156450  0.74128700  1
  O  O147  1  0.66055700  0.81233300  0.74757200  1
  O  O148  1  0.23296950  0.75303150  0.51128200  1
  O  O149  1  0.76703050  0.75303150  0.01128200  1
  O  O150  1  0.08720000  0.75103000  0.24522400  1
  O  O151  1  0.58720000  0.74897000  0.24522400  1
  O  O152  1  0.41280000  0.74897000  0.74522400  1
  O  O153  1  0.91280000  0.75103000  0.74522400  1
  O  O154  1  0.26703050  0.74696850  0.01128200  1
  O  O155  1  0.73296950  0.74696850  0.51128200  1
  O  O156  1  0.34413850  0.68843550  0.24128700  1
  O  O157  1  0.16055700  0.68766700  0.74757200  1
  O  O158  1  0.65586150  0.68843550  0.74128700  1
  O  O159  1  0.83944300  0.68766700  0.24757200  1
  O  O160  1  0.51189550  0.68911150  0.50556500  1
  O  O161  1  0.48810450  0.68911150  0.00556500  1
  O  O162  1  0.99850500  0.68652400  0.50874500  1
  O  O163  1  0.00149500  0.68652400  0.00874500  1
  O  O164  1  0.90386350  0.62490850  0.75904000  1
  O  O165  1  0.09613650  0.62490850  0.25904000  1
  O  O166  1  0.59310650  0.62494450  0.24175800  1
  O  O167  1  0.40689350  0.62494450  0.74175800  1
  O  O168  1  0.00272700  0.56318800  0.50698600  1
  O  O169  1  0.50328050  0.56314650  0.99206200  1
  O  O170  1  0.99727300  0.56318800  0.00698600  1
  O  O171  1  0.49671950  0.56314650  0.49206200  1
  O  O172  1  0.83682800  0.56281400  0.24381000  1
  O  O173  1  0.33377200  0.56197200  0.25869000  1
  O  O174  1  0.16317200  0.56281400  0.74381000  1
  O  O175  1  0.66622800  0.56197200  0.75869000  1
  O  O176  1  0.06938750  0.00000000  0.27043400  1
  O  O177  1  0.75049300  0.50000000  0.49922800  1
  O  O178  1  0.24950700  0.50000000  0.99922800  1
  O  O179  1  0.75012200  0.50000000  0.00125300  1
  O  O180  1  0.93061250  0.00000000  0.77043400  1
  O  O181  1  0.93138800  0.50000000  0.73020700  1
  O  O182  1  0.24987800  0.50000000  0.50125300  1
  O  O183  1  0.06861200  0.50000000  0.23020700  1
