# generated using pymatgen
data_NaHoO2
_symmetry_space_group_name_H-M   'P 1'
_cell_length_a   4.60964600
_cell_length_b   4.60964600
_cell_length_c   10.32691400
_cell_angle_alpha   90.00000000
_cell_angle_beta   90.00000000
_cell_angle_gamma   90.00000000
_symmetry_Int_Tables_number   1
_chemical_formula_structural   NaHoO2
_chemical_formula_sum   'Na4 Ho4 O8'
_cell_volume   219.43490451
_cell_formula_units_Z   4
loop_
 _symmetry_equiv_pos_site_id
 _symmetry_equiv_pos_as_xyz
  1  'x, y, z'
loop_
 _atom_site_type_symbol
 _atom_site_label
 _atom_site_symmetry_multiplicity
 _atom_site_fract_x
 _atom_site_fract_y
 _atom_site_fract_z
 _atom_site_occupancy
  Na  Na0  1  0.00000000  0.00000000  0.00000000  1
  Na  Na1  1  0.00000000  0.50000000  0.25000000  1
  Na  Na2  1  0.50000000  0.50000000  0.50000000  1
  Na  Na3  1  0.50000000  0.00000000  0.75000000  1
  Ho  Ho4  1  0.50000000  0.50000000  0.00000000  1
  Ho  Ho5  1  0.50000000  0.00000000  0.25000000  1
  Ho  Ho6  1  0.00000000  0.00000000  0.50000000  1
  Ho  Ho7  1  0.00000000  0.50000000  0.75000000  1
  O  O8  1  0.50000000  0.00000000  0.47149600  1
  O  O9  1  0.00000000  0.00000000  0.27850400  1
  O  O10  1  0.50000000  0.50000000  0.22149600  1
  O  O11  1  0.50000000  0.00000000  0.02850400  1
  O  O12  1  0.00000000  0.50000000  0.97149600  1
  O  O13  1  0.50000000  0.50000000  0.77850400  1
  O  O14  1  0.00000000  0.00000000  0.72149600  1
  O  O15  1  0.00000000  0.50000000  0.52850400  1
