# generated using pymatgen
data_Li4Cr2C4SO16
_symmetry_space_group_name_H-M   'P 1'
_cell_length_a   12.94948800
_cell_length_b   13.22924600
_cell_length_c   14.04187000
_cell_angle_alpha   90.00000000
_cell_angle_beta   90.00000000
_cell_angle_gamma   90.00000000
_symmetry_Int_Tables_number   1
_chemical_formula_structural   Li4Cr2C4SO16
_chemical_formula_sum   'Li32 Cr16 C32 S8 O128'
_cell_volume   2405.54030443
_cell_formula_units_Z   8
loop_
 _symmetry_equiv_pos_site_id
 _symmetry_equiv_pos_as_xyz
  1  'x, y, z'
loop_
 _atom_site_type_symbol
 _atom_site_label
 _atom_site_symmetry_multiplicity
 _atom_site_fract_x
 _atom_site_fract_y
 _atom_site_fract_z
 _atom_site_occupancy
  Li  Li0  1  0.75000000  0.45228500  0.25000000  1
  Li  Li1  1  0.54612800  0.25000000  0.25000000  1
  Li  Li2  1  0.29612800  0.00000000  0.00000000  1
  Li  Li3  1  0.50000000  0.20228500  0.00000000  1
  Li  Li4  1  0.75000000  0.04771500  0.25000000  1
  Li  Li5  1  0.95387200  0.25000000  0.25000000  1
  Li  Li6  1  0.70387200  0.00000000  0.00000000  1
  Li  Li7  1  0.50000000  0.79771500  0.00000000  1
  Li  Li8  1  0.75000000  0.95228500  0.75000000  1
  Li  Li9  1  0.54612800  0.75000000  0.75000000  1
  Li  Li10  1  0.29612800  0.50000000  0.50000000  1
  Li  Li11  1  0.50000000  0.70228500  0.50000000  1
  Li  Li12  1  0.75000000  0.54771500  0.75000000  1
  Li  Li13  1  0.95387200  0.75000000  0.75000000  1
  Li  Li14  1  0.70387200  0.50000000  0.50000000  1
  Li  Li15  1  0.50000000  0.29771500  0.50000000  1
  Li  Li16  1  0.25000000  0.45228500  0.75000000  1
  Li  Li17  1  0.04612800  0.25000000  0.75000000  1
  Li  Li18  1  0.79612800  0.00000000  0.50000000  1
  Li  Li19  1  0.00000000  0.20228500  0.50000000  1
  Li  Li20  1  0.25000000  0.04771500  0.75000000  1
  Li  Li21  1  0.45387200  0.25000000  0.75000000  1
  Li  Li22  1  0.20387200  0.00000000  0.50000000  1
  Li  Li23  1  0.00000000  0.79771500  0.50000000  1
  Li  Li24  1  0.25000000  0.95228500  0.25000000  1
  Li  Li25  1  0.04612800  0.75000000  0.25000000  1
  Li  Li26  1  0.79612800  0.50000000  0.00000000  1
  Li  Li27  1  0.00000000  0.70228500  0.00000000  1
  Li  Li28  1  0.25000000  0.54771500  0.25000000  1
  Li  Li29  1  0.45387200  0.75000000  0.25000000  1
  Li  Li30  1  0.20387200  0.50000000  0.00000000  1
  Li  Li31  1  0.00000000  0.29771500  0.00000000  1
  Cr  Cr32  1  0.87500000  0.62500000  0.37500000  1
  Cr  Cr33  1  0.62500000  0.87500000  0.37500000  1
  Cr  Cr34  1  0.62500000  0.62500000  0.12500000  1
  Cr  Cr35  1  0.87500000  0.87500000  0.12500000  1
  Cr  Cr36  1  0.87500000  0.12500000  0.87500000  1
  Cr  Cr37  1  0.62500000  0.37500000  0.87500000  1
  Cr  Cr38  1  0.62500000  0.12500000  0.62500000  1
  Cr  Cr39  1  0.87500000  0.37500000  0.62500000  1
  Cr  Cr40  1  0.37500000  0.62500000  0.87500000  1
  Cr  Cr41  1  0.12500000  0.87500000  0.87500000  1
  Cr  Cr42  1  0.12500000  0.62500000  0.62500000  1
  Cr  Cr43  1  0.37500000  0.87500000  0.62500000  1
  Cr  Cr44  1  0.37500000  0.12500000  0.37500000  1
  Cr  Cr45  1  0.12500000  0.37500000  0.37500000  1
  Cr  Cr46  1  0.12500000  0.12500000  0.12500000  1
  Cr  Cr47  1  0.37500000  0.37500000  0.12500000  1
  C  C48  1  0.59643850  0.40635050  0.08602400  1
  C  C49  1  0.34643850  0.15635050  0.16397600  1
  C  C50  1  0.90356150  0.40635050  0.41397600  1
  C  C51  1  0.59643850  0.09364950  0.41397600  1
  C  C52  1  0.15356150  0.15635050  0.33602400  1
  C  C53  1  0.84643850  0.84364950  0.33602400  1
  C  C54  1  0.90356150  0.09364950  0.08602400  1
  C  C55  1  0.65356150  0.84364950  0.16397600  1
  C  C56  1  0.59643850  0.90635050  0.58602400  1
  C  C57  1  0.34643850  0.65635050  0.66397600  1
  C  C58  1  0.90356150  0.90635050  0.91397600  1
  C  C59  1  0.59643850  0.59364950  0.91397600  1
  C  C60  1  0.15356150  0.65635050  0.83602400  1
  C  C61  1  0.84643850  0.34364950  0.83602400  1
  C  C62  1  0.90356150  0.59364950  0.58602400  1
  C  C63  1  0.65356150  0.34364950  0.66397600  1
  C  C64  1  0.09643850  0.40635050  0.58602400  1
  C  C65  1  0.84643850  0.15635050  0.66397600  1
  C  C66  1  0.40356150  0.40635050  0.91397600  1
  C  C67  1  0.09643850  0.09364950  0.91397600  1
  C  C68  1  0.65356150  0.15635050  0.83602400  1
  C  C69  1  0.34643850  0.84364950  0.83602400  1
  C  C70  1  0.40356150  0.09364950  0.58602400  1
  C  C71  1  0.15356150  0.84364950  0.66397600  1
  C  C72  1  0.09643850  0.90635050  0.08602400  1
  C  C73  1  0.84643850  0.65635050  0.16397600  1
  C  C74  1  0.40356150  0.90635050  0.41397600  1
  C  C75  1  0.09643850  0.59364950  0.41397600  1
  C  C76  1  0.65356150  0.65635050  0.33602400  1
  C  C77  1  0.34643850  0.34364950  0.33602400  1
  C  C78  1  0.40356150  0.59364950  0.08602400  1
  C  C79  1  0.15356150  0.34364950  0.16397600  1
  S  S80  1  0.50000000  0.00000000  0.00000000  1
  S  S81  1  0.75000000  0.25000000  0.25000000  1
  S  S82  1  0.50000000  0.50000000  0.50000000  1
  S  S83  1  0.75000000  0.75000000  0.75000000  1
  S  S84  1  0.00000000  0.00000000  0.50000000  1
  S  S85  1  0.25000000  0.25000000  0.75000000  1
  S  S86  1  0.00000000  0.50000000  0.00000000  1
  S  S87  1  0.25000000  0.75000000  0.25000000  1
  O  O88  1  0.10828100  0.97623250  0.14981550  1
  O  O89  1  0.43131350  0.93249900  0.05749350  1
  O  O90  1  0.15650350  0.90182900  0.01332950  1
  O  O91  1  0.40650350  0.15182900  0.23667050  1
  O  O92  1  0.34349650  0.90182900  0.48667050  1
  O  O93  1  0.27404950  0.08938700  0.15219850  1
  O  O94  1  0.06868650  0.93249900  0.44250650  1
  O  O95  1  0.56868650  0.06750100  0.05749350  1
  O  O96  1  0.77404950  0.91061300  0.34780150  1
  O  O97  1  0.65650350  0.09817100  0.48667050  1
  O  O98  1  0.35828100  0.22623250  0.10018450  1
  O  O99  1  0.93131350  0.06750100  0.44250650  1
  O  O100  1  0.39171900  0.97623250  0.35018450  1
  O  O101  1  0.60828100  0.02376750  0.35018450  1
  O  O102  1  0.52404950  0.33938700  0.09780150  1
  O  O103  1  0.22595050  0.08938700  0.34780150  1
  O  O104  1  0.02404950  0.66061300  0.40219850  1
  O  O105  1  0.72595050  0.91061300  0.15219850  1
  O  O106  1  0.14171900  0.22623250  0.39981550  1
  O  O107  1  0.85828100  0.77376750  0.39981550  1
  O  O108  1  0.81868650  0.18249900  0.30749350  1
  O  O109  1  0.89171900  0.02376750  0.14981550  1
  O  O110  1  0.09349650  0.15182900  0.26332950  1
  O  O111  1  0.97595050  0.33938700  0.40219850  1
  O  O112  1  0.68131350  0.18249900  0.19250650  1
  O  O113  1  0.68131350  0.31750100  0.30749350  1
  O  O114  1  0.47595050  0.66061300  0.09780150  1
  O  O115  1  0.90650350  0.84817100  0.26332950  1
  O  O116  1  0.84349650  0.09817100  0.01332950  1
  O  O117  1  0.59349650  0.84817100  0.23667050  1
  O  O118  1  0.81868650  0.31750100  0.19250650  1
  O  O119  1  0.64171900  0.77376750  0.10018450  1
  O  O120  1  0.10828100  0.47623250  0.64981550  1
  O  O121  1  0.43131350  0.43249900  0.55749350  1
  O  O122  1  0.15650350  0.40182900  0.51332950  1
  O  O123  1  0.40650350  0.65182900  0.73667050  1
  O  O124  1  0.34349650  0.40182900  0.98667050  1
  O  O125  1  0.27404950  0.58938700  0.65219850  1
  O  O126  1  0.06868650  0.43249900  0.94250650  1
  O  O127  1  0.56868650  0.56750100  0.55749350  1
  O  O128  1  0.77404950  0.41061300  0.84780150  1
  O  O129  1  0.65650350  0.59817100  0.98667050  1
  O  O130  1  0.35828100  0.72623250  0.60018450  1
  O  O131  1  0.93131350  0.56750100  0.94250650  1
  O  O132  1  0.39171900  0.47623250  0.85018450  1
  O  O133  1  0.60828100  0.52376750  0.85018450  1
  O  O134  1  0.52404950  0.83938700  0.59780150  1
  O  O135  1  0.22595050  0.58938700  0.84780150  1
  O  O136  1  0.02404950  0.16061300  0.90219850  1
  O  O137  1  0.72595050  0.41061300  0.65219850  1
  O  O138  1  0.14171900  0.72623250  0.89981550  1
  O  O139  1  0.85828100  0.27376750  0.89981550  1
  O  O140  1  0.81868650  0.68249900  0.80749350  1
  O  O141  1  0.89171900  0.52376750  0.64981550  1
  O  O142  1  0.09349650  0.65182900  0.76332950  1
  O  O143  1  0.97595050  0.83938700  0.90219850  1
  O  O144  1  0.68131350  0.68249900  0.69250650  1
  O  O145  1  0.68131350  0.81750100  0.80749350  1
  O  O146  1  0.47595050  0.16061300  0.59780150  1
  O  O147  1  0.90650350  0.34817100  0.76332950  1
  O  O148  1  0.84349650  0.59817100  0.51332950  1
  O  O149  1  0.59349650  0.34817100  0.73667050  1
  O  O150  1  0.81868650  0.81750100  0.69250650  1
  O  O151  1  0.64171900  0.27376750  0.60018450  1
  O  O152  1  0.60828100  0.97623250  0.64981550  1
  O  O153  1  0.93131350  0.93249900  0.55749350  1
  O  O154  1  0.65650350  0.90182900  0.51332950  1
  O  O155  1  0.90650350  0.15182900  0.73667050  1
  O  O156  1  0.84349650  0.90182900  0.98667050  1
  O  O157  1  0.77404950  0.08938700  0.65219850  1
  O  O158  1  0.56868650  0.93249900  0.94250650  1
  O  O159  1  0.06868650  0.06750100  0.55749350  1
  O  O160  1  0.27404950  0.91061300  0.84780150  1
  O  O161  1  0.15650350  0.09817100  0.98667050  1
  O  O162  1  0.85828100  0.22623250  0.60018450  1
  O  O163  1  0.43131350  0.06750100  0.94250650  1
  O  O164  1  0.89171900  0.97623250  0.85018450  1
  O  O165  1  0.10828100  0.02376750  0.85018450  1
  O  O166  1  0.02404950  0.33938700  0.59780150  1
  O  O167  1  0.72595050  0.08938700  0.84780150  1
  O  O168  1  0.52404950  0.66061300  0.90219850  1
  O  O169  1  0.22595050  0.91061300  0.65219850  1
  O  O170  1  0.64171900  0.22623250  0.89981550  1
  O  O171  1  0.35828100  0.77376750  0.89981550  1
  O  O172  1  0.31868650  0.18249900  0.80749350  1
  O  O173  1  0.39171900  0.02376750  0.64981550  1
  O  O174  1  0.59349650  0.15182900  0.76332950  1
  O  O175  1  0.47595050  0.33938700  0.90219850  1
  O  O176  1  0.18131350  0.18249900  0.69250650  1
  O  O177  1  0.18131350  0.31750100  0.80749350  1
  O  O178  1  0.97595050  0.66061300  0.59780150  1
  O  O179  1  0.40650350  0.84817100  0.76332950  1
  O  O180  1  0.34349650  0.09817100  0.51332950  1
  O  O181  1  0.09349650  0.84817100  0.73667050  1
  O  O182  1  0.31868650  0.31750100  0.69250650  1
  O  O183  1  0.14171900  0.77376750  0.60018450  1
  O  O184  1  0.60828100  0.47623250  0.14981550  1
  O  O185  1  0.93131350  0.43249900  0.05749350  1
  O  O186  1  0.65650350  0.40182900  0.01332950  1
  O  O187  1  0.90650350  0.65182900  0.23667050  1
  O  O188  1  0.84349650  0.40182900  0.48667050  1
  O  O189  1  0.77404950  0.58938700  0.15219850  1
  O  O190  1  0.56868650  0.43249900  0.44250650  1
  O  O191  1  0.06868650  0.56750100  0.05749350  1
  O  O192  1  0.27404950  0.41061300  0.34780150  1
  O  O193  1  0.15650350  0.59817100  0.48667050  1
  O  O194  1  0.85828100  0.72623250  0.10018450  1
  O  O195  1  0.43131350  0.56750100  0.44250650  1
  O  O196  1  0.89171900  0.47623250  0.35018450  1
  O  O197  1  0.10828100  0.52376750  0.35018450  1
  O  O198  1  0.02404950  0.83938700  0.09780150  1
  O  O199  1  0.72595050  0.58938700  0.34780150  1
  O  O200  1  0.52404950  0.16061300  0.40219850  1
  O  O201  1  0.22595050  0.41061300  0.15219850  1
  O  O202  1  0.64171900  0.72623250  0.39981550  1
  O  O203  1  0.35828100  0.27376750  0.39981550  1
  O  O204  1  0.31868650  0.68249900  0.30749350  1
  O  O205  1  0.39171900  0.52376750  0.14981550  1
  O  O206  1  0.59349650  0.65182900  0.26332950  1
  O  O207  1  0.47595050  0.83938700  0.40219850  1
  O  O208  1  0.18131350  0.68249900  0.19250650  1
  O  O209  1  0.18131350  0.81750100  0.30749350  1
  O  O210  1  0.97595050  0.16061300  0.09780150  1
  O  O211  1  0.40650350  0.34817100  0.26332950  1
  O  O212  1  0.34349650  0.59817100  0.01332950  1
  O  O213  1  0.09349650  0.34817100  0.23667050  1
  O  O214  1  0.31868650  0.81750100  0.19250650  1
  O  O215  1  0.14171900  0.27376750  0.10018450  1
