# generated using pymatgen
data_LiLa5Ti8O24
_symmetry_space_group_name_H-M   'P 1'
_cell_length_a   15.57126400
_cell_length_b   7.79337000
_cell_length_c   8.76476493
_cell_angle_alpha   90.00000000
_cell_angle_beta   116.33850864
_cell_angle_gamma   90.00000000
_symmetry_Int_Tables_number   1
_chemical_formula_structural   LiLa5Ti8O24
_chemical_formula_sum   'Li2 La10 Ti16 O48'
_cell_volume   953.21040265
_cell_formula_units_Z   2
loop_
 _symmetry_equiv_pos_site_id
 _symmetry_equiv_pos_as_xyz
  1  'x, y, z'
loop_
 _atom_site_type_symbol
 _atom_site_label
 _atom_site_symmetry_multiplicity
 _atom_site_fract_x
 _atom_site_fract_y
 _atom_site_fract_z
 _atom_site_occupancy
  Li  Li0  1  0.49245000  0.00000000  0.00038400  1
  Li  Li1  1  0.99245000  0.50000000  0.00038400  1
  La  La2  1  0.12286000  0.50000000  0.50131200  1
  La  La3  1  0.37546200  0.50000000  0.49806700  1
  La  La4  1  0.12787200  0.00000000  0.50215500  1
  La  La5  1  0.24878600  0.00000000  0.00020600  1
  La  La6  1  0.37352300  0.00000000  0.49852000  1
  La  La7  1  0.62286000  0.00000000  0.50131200  1
  La  La8  1  0.87546200  0.00000000  0.49806700  1
  La  La9  1  0.62787200  0.50000000  0.50215500  1
  La  La10  1  0.74878600  0.50000000  0.00020600  1
  La  La11  1  0.87352300  0.50000000  0.49852000  1
  Ti  Ti12  1  0.18338450  0.25321650  0.23988900  1
  Ti  Ti13  1  0.06320550  0.25284950  0.76021800  1
  Ti  Ti14  1  0.06320550  0.74715050  0.76021800  1
  Ti  Ti15  1  0.31617050  0.74506450  0.75962000  1
  Ti  Ti16  1  0.43643500  0.74508300  0.24021800  1
  Ti  Ti17  1  0.18338450  0.74678350  0.23988900  1
  Ti  Ti18  1  0.31617050  0.25493550  0.75962000  1
  Ti  Ti19  1  0.43643500  0.25491700  0.24021800  1
  Ti  Ti20  1  0.68338450  0.75321650  0.23988900  1
  Ti  Ti21  1  0.56320550  0.75284950  0.76021800  1
  Ti  Ti22  1  0.56320550  0.24715050  0.76021800  1
  Ti  Ti23  1  0.81617050  0.24506450  0.75962000  1
  Ti  Ti24  1  0.93643500  0.24508300  0.24021800  1
  Ti  Ti25  1  0.68338450  0.24678350  0.23988900  1
  Ti  Ti26  1  0.81617050  0.75493550  0.75962000  1
  Ti  Ti27  1  0.93643500  0.75491700  0.24021800  1
  O  O28  1  0.06721200  0.25715200  0.26822200  1
  O  O29  1  0.13086400  0.23869300  0.99998800  1
  O  O30  1  0.18441600  0.23953900  0.73562600  1
  O  O31  1  0.19412700  0.50000000  0.27496100  1
  O  O32  1  0.44279600  0.50000000  0.27322300  1
  O  O33  1  0.30442900  0.50000000  0.72277000  1
  O  O34  1  0.05739700  0.50000000  0.73246600  1
  O  O35  1  0.31666700  0.75850900  0.26456200  1
  O  O36  1  0.37197550  0.78039950  0.00003700  1
  O  O37  1  0.06721200  0.74284800  0.26822200  1
  O  O38  1  0.43278300  0.75200800  0.73108500  1
  O  O39  1  0.18441600  0.76046100  0.73562600  1
  O  O40  1  0.13086400  0.76130700  0.99998800  1
  O  O41  1  0.25017850  0.75635350  0.49970100  1
  O  O42  1  0.00054300  0.25132000  0.50025200  1
  O  O43  1  0.06271200  0.00000000  0.73259800  1
  O  O44  1  0.43845100  0.00000000  0.26765100  1
  O  O45  1  0.19521700  0.00000000  0.26156200  1
  O  O46  1  0.30626700  0.00000000  0.73528900  1
  O  O47  1  0.25017850  0.24364650  0.49970100  1
  O  O48  1  0.31666700  0.24149100  0.26456200  1
  O  O49  1  0.00054300  0.74868000  0.50025200  1
  O  O50  1  0.37197550  0.21960050  0.00003700  1
  O  O51  1  0.43278300  0.24799200  0.73108500  1
  O  O52  1  0.56721200  0.75715200  0.26822200  1
  O  O53  1  0.63086400  0.73869300  0.99998800  1
  O  O54  1  0.68441600  0.73953900  0.73562600  1
  O  O55  1  0.69412700  0.00000000  0.27496100  1
  O  O56  1  0.94279600  0.00000000  0.27322300  1
  O  O57  1  0.80442900  0.00000000  0.72277000  1
  O  O58  1  0.55739700  0.00000000  0.73246600  1
  O  O59  1  0.81666700  0.25850900  0.26456200  1
  O  O60  1  0.87197550  0.28039950  0.00003700  1
  O  O61  1  0.56721200  0.24284800  0.26822200  1
  O  O62  1  0.93278300  0.25200800  0.73108500  1
  O  O63  1  0.68441600  0.26046100  0.73562600  1
  O  O64  1  0.63086400  0.26130700  0.99998800  1
  O  O65  1  0.75017850  0.25635350  0.49970100  1
  O  O66  1  0.50054300  0.75132000  0.50025200  1
  O  O67  1  0.56271200  0.50000000  0.73259800  1
  O  O68  1  0.93845100  0.50000000  0.26765100  1
  O  O69  1  0.69521700  0.50000000  0.26156200  1
  O  O70  1  0.80626700  0.50000000  0.73528900  1
  O  O71  1  0.75017850  0.74364650  0.49970100  1
  O  O72  1  0.81666700  0.74149100  0.26456200  1
  O  O73  1  0.50054300  0.24868000  0.50025200  1
  O  O74  1  0.87197550  0.71960050  0.00003700  1
  O  O75  1  0.93278300  0.74799200  0.73108500  1
