# generated using pymatgen
data_Li2BiPCO7
_symmetry_space_group_name_H-M   'P 1'
_cell_length_a   5.08395800
_cell_length_b   7.11007900
_cell_length_c   8.99035786
_cell_angle_alpha   90.00000000
_cell_angle_beta   96.30665719
_cell_angle_gamma   90.00000000
_symmetry_Int_Tables_number   1
_chemical_formula_structural   Li2BiPCO7
_chemical_formula_sum   'Li4 Bi2 P2 C2 O14'
_cell_volume   323.01084979
_cell_formula_units_Z   2
loop_
 _symmetry_equiv_pos_site_id
 _symmetry_equiv_pos_as_xyz
  1  'x, y, z'
loop_
 _atom_site_type_symbol
 _atom_site_label
 _atom_site_symmetry_multiplicity
 _atom_site_fract_x
 _atom_site_fract_y
 _atom_site_fract_z
 _atom_site_occupancy
  Li  Li0  1  0.76400600  0.74184300  0.90891200  1
  Li  Li1  1  0.24372900  0.92783900  0.72924700  1
  Li  Li2  1  0.75627100  0.42783900  0.27075300  1
  Li  Li3  1  0.23599400  0.24184300  0.09108800  1
  Bi  Bi4  1  0.78798200  0.26331700  0.66973600  1
  Bi  Bi5  1  0.21201800  0.76331700  0.33026400  1
  P  P6  1  0.71622100  0.75626100  0.59677200  1
  P  P7  1  0.28377900  0.25626100  0.40322800  1
  C  C8  1  0.68646600  0.25095000  0.97020000  1
  C  C9  1  0.31353400  0.75095000  0.02980000  1
  O  O10  1  0.93369000  0.25549200  0.94065600  1
  O  O11  1  0.38006800  0.78622900  0.89961900  1
  O  O12  1  0.50424400  0.21264700  0.85935900  1
  O  O13  1  0.85950400  0.92759700  0.67897100  1
  O  O14  1  0.78365500  0.58826000  0.70587400  1
  O  O15  1  0.20557700  0.22336700  0.56326600  1
  O  O16  1  0.41172400  0.79421100  0.57838700  1
  O  O17  1  0.58827600  0.29421100  0.42161300  1
  O  O18  1  0.79442300  0.72336700  0.43673400  1
  O  O19  1  0.21634500  0.08826000  0.29412600  1
  O  O20  1  0.14049600  0.42759700  0.32102900  1
  O  O21  1  0.49575600  0.71264700  0.14064100  1
  O  O22  1  0.61993200  0.28622900  0.10038100  1
  O  O23  1  0.06631000  0.75549200  0.05934400  1
