# generated using pymatgen
data_Ba3Y2Cl12
_symmetry_space_group_name_H-M   'P 1'
_cell_length_a   10.43369200
_cell_length_b   15.02661200
_cell_length_c   15.04505324
_cell_angle_alpha   90.00000000
_cell_angle_beta   108.78830363
_cell_angle_gamma   90.00000000
_symmetry_Int_Tables_number   1
_chemical_formula_structural   Ba3Y2Cl12
_chemical_formula_sum   'Ba12 Y8 Cl48'
_cell_volume   2233.12012281
_cell_formula_units_Z   4
loop_
 _symmetry_equiv_pos_site_id
 _symmetry_equiv_pos_as_xyz
  1  'x, y, z'
loop_
 _atom_site_type_symbol
 _atom_site_label
 _atom_site_symmetry_multiplicity
 _atom_site_fract_x
 _atom_site_fract_y
 _atom_site_fract_z
 _atom_site_occupancy
  Ba  Ba0  1  0.33128950  0.11708850  0.92764400  1
  Ba  Ba1  1  0.50000000  0.36960800  0.75000000  1
  Ba  Ba2  1  0.33128950  0.88291150  0.42764400  1
  Ba  Ba3  1  0.66871050  0.11708850  0.57235600  1
  Ba  Ba4  1  0.50000000  0.63039200  0.25000000  1
  Ba  Ba5  1  0.66871050  0.88291150  0.07235600  1
  Ba  Ba6  1  0.83128950  0.61708850  0.92764400  1
  Ba  Ba7  1  0.00000000  0.86960800  0.75000000  1
  Ba  Ba8  1  0.83128950  0.38291150  0.42764400  1
  Ba  Ba9  1  0.16871050  0.61708850  0.57235600  1
  Ba  Ba10  1  0.00000000  0.13039200  0.25000000  1
  Ba  Ba11  1  0.16871050  0.38291150  0.07235600  1
  Y  Y12  1  0.19841350  0.13613950  0.59337900  1
  Y  Y13  1  0.19841350  0.86386050  0.09337900  1
  Y  Y14  1  0.80158650  0.13613950  0.90662100  1
  Y  Y15  1  0.80158650  0.86386050  0.40662100  1
  Y  Y16  1  0.69841350  0.63613950  0.59337900  1
  Y  Y17  1  0.69841350  0.36386050  0.09337900  1
  Y  Y18  1  0.30158650  0.63613950  0.90662100  1
  Y  Y19  1  0.30158650  0.36386050  0.40662100  1
  Cl  Cl20  1  0.60033050  0.23780550  0.92753000  1
  Cl  Cl21  1  0.25739650  0.24507650  0.74599900  1
  Cl  Cl22  1  0.19907300  0.02185200  0.72790200  1
  Cl  Cl23  1  0.60033050  0.76219450  0.42753000  1
  Cl  Cl24  1  0.25739650  0.75492350  0.24599900  1
  Cl  Cl25  1  0.88694800  0.96539300  0.55853600  1
  Cl  Cl26  1  0.58158450  0.01914450  0.90135300  1
  Cl  Cl27  1  0.55862400  0.70111400  0.93252600  1
  Cl  Cl28  1  0.19907300  0.97814800  0.22790200  1
  Cl  Cl29  1  0.44137600  0.70111400  0.56747400  1
  Cl  Cl30  1  0.41841550  0.01914450  0.59864700  1
  Cl  Cl31  1  0.11305200  0.96539300  0.94146400  1
  Cl  Cl32  1  0.88694800  0.03460700  0.05853600  1
  Cl  Cl33  1  0.58158450  0.98085550  0.40135300  1
  Cl  Cl34  1  0.55862400  0.29888600  0.43252600  1
  Cl  Cl35  1  0.80092700  0.02185200  0.77209800  1
  Cl  Cl36  1  0.44137600  0.29888600  0.06747400  1
  Cl  Cl37  1  0.41841550  0.98085550  0.09864700  1
  Cl  Cl38  1  0.11305200  0.03460700  0.44146400  1
  Cl  Cl39  1  0.74260350  0.24507650  0.75400100  1
  Cl  Cl40  1  0.39966950  0.23780550  0.57247000  1
  Cl  Cl41  1  0.80092700  0.97814800  0.27209800  1
  Cl  Cl42  1  0.74260350  0.75492350  0.25400100  1
  Cl  Cl43  1  0.39966950  0.76219450  0.07247000  1
  Cl  Cl44  1  0.10033050  0.73780550  0.92753000  1
  Cl  Cl45  1  0.75739650  0.74507650  0.74599900  1
  Cl  Cl46  1  0.69907300  0.52185200  0.72790200  1
  Cl  Cl47  1  0.10033050  0.26219450  0.42753000  1
  Cl  Cl48  1  0.75739650  0.25492350  0.24599900  1
  Cl  Cl49  1  0.38694800  0.46539300  0.55853600  1
  Cl  Cl50  1  0.08158450  0.51914450  0.90135300  1
  Cl  Cl51  1  0.05862400  0.20111400  0.93252600  1
  Cl  Cl52  1  0.69907300  0.47814800  0.22790200  1
  Cl  Cl53  1  0.94137600  0.20111400  0.56747400  1
  Cl  Cl54  1  0.91841550  0.51914450  0.59864700  1
  Cl  Cl55  1  0.61305200  0.46539300  0.94146400  1
  Cl  Cl56  1  0.38694800  0.53460700  0.05853600  1
  Cl  Cl57  1  0.08158450  0.48085550  0.40135300  1
  Cl  Cl58  1  0.05862400  0.79888600  0.43252600  1
  Cl  Cl59  1  0.30092700  0.52185200  0.77209800  1
  Cl  Cl60  1  0.94137600  0.79888600  0.06747400  1
  Cl  Cl61  1  0.91841550  0.48085550  0.09864700  1
  Cl  Cl62  1  0.61305200  0.53460700  0.44146400  1
  Cl  Cl63  1  0.24260350  0.74507650  0.75400100  1
  Cl  Cl64  1  0.89966950  0.73780550  0.57247000  1
  Cl  Cl65  1  0.30092700  0.47814800  0.27209800  1
  Cl  Cl66  1  0.24260350  0.25492350  0.25400100  1
  Cl  Cl67  1  0.89966950  0.26219450  0.07247000  1
