# generated using pymatgen
data_ZnIn2O4
_symmetry_space_group_name_H-M   'P 1'
_cell_length_a   9.05516000
_cell_length_b   9.05516000
_cell_length_c   9.05516000
_cell_angle_alpha   90.00000000
_cell_angle_beta   90.00000000
_cell_angle_gamma   90.00000000
_symmetry_Int_Tables_number   1
_chemical_formula_structural   ZnIn2O4
_chemical_formula_sum   'Zn8 In16 O32'
_cell_volume   742.48619872
_cell_formula_units_Z   8
loop_
 _symmetry_equiv_pos_site_id
 _symmetry_equiv_pos_as_xyz
  1  'x, y, z'
loop_
 _atom_site_type_symbol
 _atom_site_label
 _atom_site_symmetry_multiplicity
 _atom_site_fract_x
 _atom_site_fract_y
 _atom_site_fract_z
 _atom_site_occupancy
  Zn  Zn0  1  0.25000000  0.25000000  0.25000000  1
  Zn  Zn1  1  0.50000000  0.00000000  0.50000000  1
  Zn  Zn2  1  0.25000000  0.75000000  0.75000000  1
  Zn  Zn3  1  0.50000000  0.50000000  0.00000000  1
  Zn  Zn4  1  0.75000000  0.25000000  0.75000000  1
  Zn  Zn5  1  0.00000000  0.00000000  0.00000000  1
  Zn  Zn6  1  0.75000000  0.75000000  0.25000000  1
  Zn  Zn7  1  0.00000000  0.50000000  0.50000000  1
  In  In8  1  0.37500000  0.87500000  0.12500000  1
  In  In9  1  0.37500000  0.62500000  0.37500000  1
  In  In10  1  0.12500000  0.87500000  0.37500000  1
  In  In11  1  0.12500000  0.62500000  0.12500000  1
  In  In12  1  0.37500000  0.37500000  0.62500000  1
  In  In13  1  0.37500000  0.12500000  0.87500000  1
  In  In14  1  0.12500000  0.37500000  0.87500000  1
  In  In15  1  0.12500000  0.12500000  0.62500000  1
  In  In16  1  0.87500000  0.87500000  0.62500000  1
  In  In17  1  0.87500000  0.62500000  0.87500000  1
  In  In18  1  0.62500000  0.87500000  0.87500000  1
  In  In19  1  0.62500000  0.62500000  0.62500000  1
  In  In20  1  0.87500000  0.37500000  0.12500000  1
  In  In21  1  0.87500000  0.12500000  0.37500000  1
  In  In22  1  0.62500000  0.37500000  0.37500000  1
  In  In23  1  0.62500000  0.12500000  0.12500000  1
  O  O24  1  0.38110500  0.38110500  0.38110500  1
  O  O25  1  0.38110500  0.11889500  0.11889500  1
  O  O26  1  0.11889500  0.38110500  0.11889500  1
  O  O27  1  0.11889500  0.11889500  0.38110500  1
  O  O28  1  0.63110500  0.13110500  0.36889500  1
  O  O29  1  0.13110500  0.86889500  0.13110500  1
  O  O30  1  0.36889500  0.86889500  0.36889500  1
  O  O31  1  0.86889500  0.13110500  0.13110500  1
  O  O32  1  0.38110500  0.88110500  0.88110500  1
  O  O33  1  0.38110500  0.61889500  0.61889500  1
  O  O34  1  0.11889500  0.88110500  0.61889500  1
  O  O35  1  0.11889500  0.61889500  0.88110500  1
  O  O36  1  0.63110500  0.63110500  0.86889500  1
  O  O37  1  0.13110500  0.36889500  0.63110500  1
  O  O38  1  0.36889500  0.36889500  0.86889500  1
  O  O39  1  0.86889500  0.63110500  0.63110500  1
  O  O40  1  0.88110500  0.38110500  0.88110500  1
  O  O41  1  0.88110500  0.11889500  0.61889500  1
  O  O42  1  0.61889500  0.38110500  0.61889500  1
  O  O43  1  0.61889500  0.11889500  0.88110500  1
  O  O44  1  0.13110500  0.13110500  0.86889500  1
  O  O45  1  0.63110500  0.86889500  0.63110500  1
  O  O46  1  0.86889500  0.86889500  0.86889500  1
  O  O47  1  0.36889500  0.13110500  0.63110500  1
  O  O48  1  0.88110500  0.88110500  0.38110500  1
  O  O49  1  0.88110500  0.61889500  0.11889500  1
  O  O50  1  0.61889500  0.88110500  0.11889500  1
  O  O51  1  0.61889500  0.61889500  0.38110500  1
  O  O52  1  0.13110500  0.63110500  0.36889500  1
  O  O53  1  0.63110500  0.36889500  0.13110500  1
  O  O54  1  0.86889500  0.36889500  0.36889500  1
  O  O55  1  0.36889500  0.63110500  0.13110500  1
