# generated using pymatgen
data_Fe3O4
_symmetry_space_group_name_H-M   'P 1'
_cell_length_a   2.95581600
_cell_length_b   9.79544800
_cell_length_c   10.00548318
_cell_angle_alpha   90.00000000
_cell_angle_beta   90.00000000
_cell_angle_gamma   90.00000000
_symmetry_Int_Tables_number   1
_chemical_formula_structural   Fe3O4
_chemical_formula_sum   'Fe12 O16'
_cell_volume   289.69417702
_cell_formula_units_Z   4
loop_
 _symmetry_equiv_pos_site_id
 _symmetry_equiv_pos_as_xyz
  1  'x, y, z'
loop_
 _atom_site_type_symbol
 _atom_site_label
 _atom_site_symmetry_multiplicity
 _atom_site_fract_x
 _atom_site_fract_y
 _atom_site_fract_z
 _atom_site_occupancy
  Fe  Fe0  1  0.67489100  0.13793300  0.50000000  1
  Fe  Fe1  1  0.72096200  0.36557800  0.00000000  1
  Fe  Fe2  1  0.27903800  0.86557800  0.00000000  1
  Fe  Fe3  1  0.32510900  0.63793300  0.50000000  1
  Fe  Fe4  1  0.77118500  0.88146300  0.32156000  1
  Fe  Fe5  1  0.22881500  0.38146300  0.32156000  1
  Fe  Fe6  1  0.22881500  0.38146300  0.67844000  1
  Fe  Fe7  1  0.24474400  0.11660300  0.17303900  1
  Fe  Fe8  1  0.24474400  0.11660300  0.82696100  1
  Fe  Fe9  1  0.75525600  0.61660300  0.17303900  1
  Fe  Fe10  1  0.77118500  0.88146300  0.67844000  1
  Fe  Fe11  1  0.75525600  0.61660300  0.82696100  1
  O  O12  1  0.24709600  0.47788200  0.13389800  1
  O  O13  1  0.28748300  0.02099400  0.63566500  1
  O  O14  1  0.24709600  0.47788200  0.86610200  1
  O  O15  1  0.75290400  0.97788200  0.13389800  1
  O  O16  1  0.71251700  0.52099400  0.63566500  1
  O  O17  1  0.75290400  0.97788200  0.86610200  1
  O  O18  1  0.71251700  0.52099400  0.36433500  1
  O  O19  1  0.28748300  0.02099400  0.36433500  1
  O  O20  1  0.22516300  0.21081000  0.00000000  1
  O  O21  1  0.82023500  0.79122600  0.50000000  1
  O  O22  1  0.17976500  0.29122600  0.50000000  1
  O  O23  1  0.77483700  0.71081000  0.00000000  1
  O  O24  1  0.27163100  0.75129400  0.75000700  1
  O  O25  1  0.72836900  0.25129400  0.24999300  1
  O  O26  1  0.27163100  0.75129400  0.24999300  1
  O  O27  1  0.72836900  0.25129400  0.75000700  1
