# generated using pymatgen
data_Cr2O3
_symmetry_space_group_name_H-M   'P 1'
_cell_length_a   9.43687400
_cell_length_b   9.43687400
_cell_length_c   9.43687400
_cell_angle_alpha   90.00000000
_cell_angle_beta   90.00000000
_cell_angle_gamma   90.00000000
_symmetry_Int_Tables_number   1
_chemical_formula_structural   Cr2O3
_chemical_formula_sum   'Cr32 O48'
_cell_volume   840.39695337
_cell_formula_units_Z   16
loop_
 _symmetry_equiv_pos_site_id
 _symmetry_equiv_pos_as_xyz
  1  'x, y, z'
loop_
 _atom_site_type_symbol
 _atom_site_label
 _atom_site_symmetry_multiplicity
 _atom_site_fract_x
 _atom_site_fract_y
 _atom_site_fract_z
 _atom_site_occupancy
  Cr  Cr0  1  0.00000000  0.00000000  0.00000000  1
  Cr  Cr1  1  0.00000000  0.00000000  0.50000000  1
  Cr  Cr2  1  0.00000000  0.50000000  0.00000000  1
  Cr  Cr3  1  0.50000000  0.00000000  0.00000000  1
  Cr  Cr4  1  0.00000000  0.25000000  0.28837700  1
  Cr  Cr5  1  0.50000000  0.75000000  0.28837700  1
  Cr  Cr6  1  0.75000000  0.28837700  0.50000000  1
  Cr  Cr7  1  0.75000000  0.21162300  0.00000000  1
  Cr  Cr8  1  0.21162300  0.50000000  0.25000000  1
  Cr  Cr9  1  0.21162300  0.00000000  0.75000000  1
  Cr  Cr10  1  0.28837700  0.00000000  0.25000000  1
  Cr  Cr11  1  0.28837700  0.50000000  0.75000000  1
  Cr  Cr12  1  0.25000000  0.21162300  0.50000000  1
  Cr  Cr13  1  0.25000000  0.28837700  0.00000000  1
  Cr  Cr14  1  0.50000000  0.25000000  0.21162300  1
  Cr  Cr15  1  0.00000000  0.75000000  0.21162300  1
  Cr  Cr16  1  0.50000000  0.50000000  0.50000000  1
  Cr  Cr17  1  0.50000000  0.50000000  0.00000000  1
  Cr  Cr18  1  0.50000000  0.00000000  0.50000000  1
  Cr  Cr19  1  0.00000000  0.50000000  0.50000000  1
  Cr  Cr20  1  0.50000000  0.75000000  0.78837700  1
  Cr  Cr21  1  0.00000000  0.25000000  0.78837700  1
  Cr  Cr22  1  0.25000000  0.78837700  0.00000000  1
  Cr  Cr23  1  0.25000000  0.71162300  0.50000000  1
  Cr  Cr24  1  0.71162300  0.00000000  0.75000000  1
  Cr  Cr25  1  0.71162300  0.50000000  0.25000000  1
  Cr  Cr26  1  0.78837700  0.50000000  0.75000000  1
  Cr  Cr27  1  0.78837700  0.00000000  0.25000000  1
  Cr  Cr28  1  0.75000000  0.71162300  0.00000000  1
  Cr  Cr29  1  0.75000000  0.78837700  0.50000000  1
  Cr  Cr30  1  0.00000000  0.75000000  0.71162300  1
  Cr  Cr31  1  0.50000000  0.25000000  0.71162300  1
  O  O32  1  0.59259050  0.13954150  0.86592550  1
  O  O33  1  0.59259050  0.36045850  0.36592550  1
  O  O34  1  0.09259050  0.13954150  0.63407450  1
  O  O35  1  0.09259050  0.36045850  0.13407450  1
  O  O36  1  0.13407450  0.09259050  0.36045850  1
  O  O37  1  0.63407450  0.90740950  0.36045850  1
  O  O38  1  0.13407450  0.90740950  0.13954150  1
  O  O39  1  0.63407450  0.09259050  0.13954150  1
  O  O40  1  0.13954150  0.13407450  0.90740950  1
  O  O41  1  0.13954150  0.36592550  0.40740950  1
  O  O42  1  0.13954150  0.63407450  0.09259050  1
  O  O43  1  0.13954150  0.86592550  0.59259050  1
  O  O44  1  0.36045850  0.13407450  0.09259050  1
  O  O45  1  0.36045850  0.36592550  0.59259050  1
  O  O46  1  0.36045850  0.63407450  0.90740950  1
  O  O47  1  0.36045850  0.86592550  0.40740950  1
  O  O48  1  0.86592550  0.59259050  0.13954150  1
  O  O49  1  0.36592550  0.40740950  0.13954150  1
  O  O50  1  0.36592550  0.59259050  0.36045850  1
  O  O51  1  0.86592550  0.40740950  0.36045850  1
  O  O52  1  0.90740950  0.36045850  0.63407450  1
  O  O53  1  0.90740950  0.13954150  0.13407450  1
  O  O54  1  0.40740950  0.13954150  0.36592550  1
  O  O55  1  0.40740950  0.36045850  0.86592550  1
  O  O56  1  0.09259050  0.63954150  0.36592550  1
  O  O57  1  0.09259050  0.86045850  0.86592550  1
  O  O58  1  0.59259050  0.63954150  0.13407450  1
  O  O59  1  0.59259050  0.86045850  0.63407450  1
  O  O60  1  0.63407450  0.59259050  0.86045850  1
  O  O61  1  0.13407450  0.40740950  0.86045850  1
  O  O62  1  0.63407450  0.40740950  0.63954150  1
  O  O63  1  0.13407450  0.59259050  0.63954150  1
  O  O64  1  0.63954150  0.63407450  0.40740950  1
  O  O65  1  0.63954150  0.86592550  0.90740950  1
  O  O66  1  0.63954150  0.13407450  0.59259050  1
  O  O67  1  0.63954150  0.36592550  0.09259050  1
  O  O68  1  0.86045850  0.63407450  0.59259050  1
  O  O69  1  0.86045850  0.86592550  0.09259050  1
  O  O70  1  0.86045850  0.13407450  0.40740950  1
  O  O71  1  0.86045850  0.36592550  0.90740950  1
  O  O72  1  0.36592550  0.09259050  0.63954150  1
  O  O73  1  0.86592550  0.90740950  0.63954150  1
  O  O74  1  0.86592550  0.09259050  0.86045850  1
  O  O75  1  0.36592550  0.90740950  0.86045850  1
  O  O76  1  0.40740950  0.86045850  0.13407450  1
  O  O77  1  0.40740950  0.63954150  0.63407450  1
  O  O78  1  0.90740950  0.63954150  0.86592550  1
  O  O79  1  0.90740950  0.86045850  0.36592550  1
