# generated using pymatgen
data_La2Ti3O9
_symmetry_space_group_name_H-M   'P 1'
_cell_length_a   7.49684000
_cell_length_b   7.96320700
_cell_length_c   14.70064800
_cell_angle_alpha   90.00000000
_cell_angle_beta   90.00000000
_cell_angle_gamma   90.00000000
_symmetry_Int_Tables_number   1
_chemical_formula_structural   La2Ti3O9
_chemical_formula_sum   'La8 Ti12 O36'
_cell_volume   877.61234974
_cell_formula_units_Z   4
loop_
 _symmetry_equiv_pos_site_id
 _symmetry_equiv_pos_as_xyz
  1  'x, y, z'
loop_
 _atom_site_type_symbol
 _atom_site_label
 _atom_site_symmetry_multiplicity
 _atom_site_fract_x
 _atom_site_fract_y
 _atom_site_fract_z
 _atom_site_occupancy
  La  La0  1  0.83553600  0.25000000  0.58401500  1
  La  La1  1  0.64660600  0.25000000  0.31984100  1
  La  La2  1  0.85339400  0.75000000  0.81984100  1
  La  La3  1  0.66446400  0.75000000  0.08401500  1
  La  La4  1  0.33553600  0.25000000  0.91598500  1
  La  La5  1  0.14660600  0.25000000  0.18015900  1
  La  La6  1  0.35339400  0.75000000  0.68015900  1
  La  La7  1  0.16446400  0.75000000  0.41598500  1
  Ti  Ti8  1  0.00000000  0.00000000  0.00000000  1
  Ti  Ti9  1  0.00000000  0.50000000  0.00000000  1
  Ti  Ti10  1  0.82711200  0.25000000  0.85141100  1
  Ti  Ti11  1  0.81464400  0.75000000  0.57486400  1
  Ti  Ti12  1  0.68535600  0.25000000  0.07486400  1
  Ti  Ti13  1  0.67288800  0.75000000  0.35141100  1
  Ti  Ti14  1  0.50000000  0.00000000  0.50000000  1
  Ti  Ti15  1  0.50000000  0.50000000  0.50000000  1
  Ti  Ti16  1  0.32711200  0.25000000  0.64858900  1
  Ti  Ti17  1  0.31464400  0.75000000  0.92513600  1
  Ti  Ti18  1  0.18535600  0.25000000  0.42513600  1
  Ti  Ti19  1  0.17288800  0.75000000  0.14858900  1
  O  O20  1  0.03508400  0.25000000  0.00666900  1
  O  O21  1  0.95197200  0.25000000  0.39854800  1
  O  O22  1  0.86114900  0.75000000  0.42987700  1
  O  O23  1  0.91366800  0.02864200  0.87370900  1
  O  O24  1  0.91366800  0.47135800  0.87370900  1
  O  O25  1  0.75732300  0.25000000  0.73698600  1
  O  O26  1  0.80867200  0.25000000  0.18723900  1
  O  O27  1  0.74123200  0.97830300  0.54828800  1
  O  O28  1  0.74123200  0.52169700  0.54828800  1
  O  O29  1  0.75876800  0.02169700  0.04828800  1
  O  O30  1  0.75876800  0.47830300  0.04828800  1
  O  O31  1  0.69132800  0.75000000  0.68723900  1
  O  O32  1  0.74267700  0.75000000  0.23698600  1
  O  O33  1  0.58633200  0.52864200  0.37370900  1
  O  O34  1  0.58633200  0.97135800  0.37370900  1
  O  O35  1  0.63885100  0.25000000  0.92987700  1
  O  O36  1  0.54802800  0.75000000  0.89854800  1
  O  O37  1  0.46491600  0.75000000  0.50666900  1
  O  O38  1  0.53508400  0.25000000  0.49333100  1
  O  O39  1  0.45197200  0.25000000  0.10145200  1
  O  O40  1  0.36114900  0.75000000  0.07012300  1
  O  O41  1  0.41366800  0.02864200  0.62629100  1
  O  O42  1  0.41366800  0.47135800  0.62629100  1
  O  O43  1  0.25732300  0.25000000  0.76301400  1
  O  O44  1  0.30867200  0.25000000  0.31276100  1
  O  O45  1  0.24123200  0.52169700  0.95171200  1
  O  O46  1  0.24123200  0.97830300  0.95171200  1
  O  O47  1  0.25876800  0.02169700  0.45171200  1
  O  O48  1  0.25876800  0.47830300  0.45171200  1
  O  O49  1  0.19132800  0.75000000  0.81276100  1
  O  O50  1  0.24267700  0.75000000  0.26301400  1
  O  O51  1  0.08633200  0.52864200  0.12629100  1
  O  O52  1  0.08633200  0.97135800  0.12629100  1
  O  O53  1  0.13885100  0.25000000  0.57012300  1
  O  O54  1  0.04802800  0.75000000  0.60145200  1
  O  O55  1  0.96491600  0.75000000  0.99333100  1
