# generated using pymatgen
data_KFe2H(SeO3)4
_symmetry_space_group_name_H-M   'P 1'
_cell_length_a   10.21099200
_cell_length_b   5.37103000
_cell_length_c   10.78569346
_cell_angle_alpha   90.00000000
_cell_angle_beta   96.77445037
_cell_angle_gamma   90.00000000
_symmetry_Int_Tables_number   1
_chemical_formula_structural   KFe2H(SeO3)4
_chemical_formula_sum   'K2 Fe4 H2 Se8 O24'
_cell_volume   587.39574910
_cell_formula_units_Z   2
loop_
 _symmetry_equiv_pos_site_id
 _symmetry_equiv_pos_as_xyz
  1  'x, y, z'
loop_
 _atom_site_type_symbol
 _atom_site_label
 _atom_site_symmetry_multiplicity
 _atom_site_fract_x
 _atom_site_fract_y
 _atom_site_fract_z
 _atom_site_occupancy
  K  K0  1  0.50000000  0.57014400  0.00000000  1
  K  K1  1  0.00000000  0.49509000  0.50000000  1
  Fe  Fe2  1  0.25381900  0.00249500  0.74046700  1
  Fe  Fe3  1  0.74618100  0.00249500  0.25953300  1
  Fe  Fe4  1  0.74435800  0.51391800  0.75761200  1
  Fe  Fe5  1  0.25564200  0.51391800  0.24238800  1
  H  H6  1  0.98505000  0.18798200  0.73492200  1
  H  H7  1  0.01495000  0.18798200  0.26507800  1
  Se  Se8  1  0.77198000  0.01843200  0.93656300  1
  Se  Se9  1  0.22802000  0.01843200  0.06343700  1
  Se  Se10  1  0.73705300  0.00745600  0.57633700  1
  Se  Se11  1  0.26294700  0.00745600  0.42366300  1
  Se  Se12  1  0.40508900  0.49127400  0.64484000  1
  Se  Se13  1  0.59491100  0.49127400  0.35516000  1
  Se  Se14  1  0.09219200  0.53319500  0.84767600  1
  Se  Se15  1  0.90780800  0.53319500  0.15232400  1
  O  O16  1  0.69429200  0.29955800  0.90186600  1
  O  O17  1  0.30570800  0.29955800  0.09813400  1
  O  O18  1  0.28895200  0.93391300  0.92556000  1
  O  O19  1  0.71104800  0.93391300  0.07444000  1
  O  O20  1  0.67786500  0.81586100  0.83729600  1
  O  O21  1  0.32213500  0.81586100  0.16270400  1
  O  O22  1  0.80731500  0.72164400  0.61447400  1
  O  O23  1  0.19268500  0.72164400  0.38552600  1
  O  O24  1  0.19157600  0.08124000  0.55732200  1
  O  O25  1  0.80842400  0.08124000  0.44267800  1
  O  O26  1  0.83240500  0.20737100  0.68200000  1
  O  O27  1  0.16759500  0.20737100  0.31800000  1
  O  O28  1  0.57305100  0.44546200  0.65260000  1
  O  O29  1  0.42694900  0.44546200  0.34740000  1
  O  O30  1  0.35837200  0.32041600  0.76995000  1
  O  O31  1  0.64162800  0.32041600  0.23005000  1
  O  O32  1  0.40120000  0.79323800  0.70098900  1
  O  O33  1  0.59880000  0.79323800  0.29901100  1
  O  O34  1  0.92919500  0.56904600  0.86364600  1
  O  O35  1  0.07080500  0.56904600  0.13635400  1
  O  O36  1  0.11780100  0.71271400  0.72225300  1
  O  O37  1  0.88219900  0.71271400  0.27774700  1
  O  O38  1  0.08069400  0.22069900  0.77300100  1
  O  O39  1  0.91930600  0.22069900  0.22699900  1
