# generated using pymatgen
data_Cr3Fe2Sb3O16
_symmetry_space_group_name_H-M   'P 1'
_cell_length_a   10.48340000
_cell_length_b   6.07217000
_cell_length_c   9.16643331
_cell_angle_alpha   90.00000000
_cell_angle_beta   90.20955834
_cell_angle_gamma   90.00000000
_symmetry_Int_Tables_number   1
_chemical_formula_structural   Cr3Fe2Sb3O16
_chemical_formula_sum   'Cr6 Fe4 Sb6 O32'
_cell_volume   583.50362304
_cell_formula_units_Z   2
loop_
 _symmetry_equiv_pos_site_id
 _symmetry_equiv_pos_as_xyz
  1  'x, y, z'
loop_
 _atom_site_type_symbol
 _atom_site_label
 _atom_site_symmetry_multiplicity
 _atom_site_fract_x
 _atom_site_fract_y
 _atom_site_fract_z
 _atom_site_occupancy
  Cr  Cr0  1  0.58363200  0.24855000  0.21006500  1
  Cr  Cr1  1  0.58363200  0.75145000  0.21006500  1
  Cr  Cr2  1  0.17035800  0.00000000  0.71017100  1
  Cr  Cr3  1  0.08363200  0.74855000  0.21006500  1
  Cr  Cr4  1  0.08363200  0.25145000  0.21006500  1
  Cr  Cr5  1  0.67035800  0.50000000  0.71017100  1
  Fe  Fe6  1  0.65724700  0.00000000  0.48955400  1
  Fe  Fe7  1  0.32644200  0.00000000  0.99590300  1
  Fe  Fe8  1  0.15724700  0.50000000  0.48955400  1
  Fe  Fe9  1  0.82644200  0.50000000  0.99590300  1
  Sb  Sb10  1  0.83262100  0.00000000  0.21073300  1
  Sb  Sb11  1  0.41833500  0.24797500  0.71233900  1
  Sb  Sb12  1  0.41833500  0.75202500  0.71233900  1
  Sb  Sb13  1  0.33262100  0.50000000  0.21073300  1
  Sb  Sb14  1  0.91833500  0.74797500  0.71233900  1
  Sb  Sb15  1  0.91833500  0.25202500  0.71233900  1
  O  O16  1  0.58053700  0.24955700  0.60126600  1
  O  O17  1  0.52583300  0.00000000  0.32524700  1
  O  O18  1  0.66754100  0.00000000  0.09816500  1
  O  O19  1  0.00040300  0.00000000  0.31504200  1
  O  O20  1  0.00212800  0.00000000  0.82090900  1
  O  O21  1  0.58053700  0.75044300  0.60126600  1
  O  O22  1  0.73416400  0.21648500  0.33731900  1
  O  O23  1  0.73416400  0.78351500  0.33731900  1
  O  O24  1  0.16495300  0.00000000  0.11260100  1
  O  O25  1  0.83498700  0.00000000  0.59969300  1
  O  O26  1  0.26368400  0.21736700  0.83686300  1
  O  O27  1  0.26368400  0.78263300  0.83686300  1
  O  O28  1  0.33576300  0.00000000  0.59374400  1
  O  O29  1  0.42002100  0.24883000  0.10321000  1
  O  O30  1  0.48308900  0.00000000  0.84154600  1
  O  O31  1  0.42002100  0.75117000  0.10321000  1
  O  O32  1  0.08053700  0.74955700  0.60126600  1
  O  O33  1  0.02583300  0.50000000  0.32524700  1
  O  O34  1  0.16754100  0.50000000  0.09816500  1
  O  O35  1  0.50040300  0.50000000  0.31504200  1
  O  O36  1  0.50212800  0.50000000  0.82090900  1
  O  O37  1  0.08053700  0.25044300  0.60126600  1
  O  O38  1  0.23416400  0.71648500  0.33731900  1
  O  O39  1  0.23416400  0.28351500  0.33731900  1
  O  O40  1  0.66495300  0.50000000  0.11260100  1
  O  O41  1  0.33498700  0.50000000  0.59969300  1
  O  O42  1  0.76368400  0.71736700  0.83686300  1
  O  O43  1  0.76368400  0.28263300  0.83686300  1
  O  O44  1  0.83576300  0.50000000  0.59374400  1
  O  O45  1  0.92002100  0.74883000  0.10321000  1
  O  O46  1  0.98308900  0.50000000  0.84154600  1
  O  O47  1  0.92002100  0.25117000  0.10321000  1
