# generated using pymatgen
data_Sr2Ti6N2O11
_symmetry_space_group_name_H-M   'P 1'
_cell_length_a   15.22885800
_cell_length_b   3.83407200
_cell_length_c   9.31133608
_cell_angle_alpha   90.00000000
_cell_angle_beta   97.75448783
_cell_angle_gamma   90.00000000
_symmetry_Int_Tables_number   1
_chemical_formula_structural   Sr2Ti6N2O11
_chemical_formula_sum   'Sr4 Ti12 N4 O22'
_cell_volume   538.70357070
_cell_formula_units_Z   2
loop_
 _symmetry_equiv_pos_site_id
 _symmetry_equiv_pos_as_xyz
  1  'x, y, z'
loop_
 _atom_site_type_symbol
 _atom_site_label
 _atom_site_symmetry_multiplicity
 _atom_site_fract_x
 _atom_site_fract_y
 _atom_site_fract_z
 _atom_site_occupancy
  Sr  Sr0  1  0.54672700  0.00000000  0.78019900  1
  Sr  Sr1  1  0.95005400  0.50000000  0.23060500  1
  Sr  Sr2  1  0.04672700  0.50000000  0.78019900  1
  Sr  Sr3  1  0.45005400  0.00000000  0.23060500  1
  Ti  Ti4  1  0.61521000  0.50000000  0.09141000  1
  Ti  Ti5  1  0.66755800  0.50000000  0.43705200  1
  Ti  Ti6  1  0.73566500  0.50000000  0.76504500  1
  Ti  Ti7  1  0.75507100  0.00000000  0.22315400  1
  Ti  Ti8  1  0.83779800  0.00000000  0.55715700  1
  Ti  Ti9  1  0.88379100  0.00000000  0.91115000  1
  Ti  Ti10  1  0.11521000  0.00000000  0.09141000  1
  Ti  Ti11  1  0.16755800  0.00000000  0.43705200  1
  Ti  Ti12  1  0.23566500  0.00000000  0.76504500  1
  Ti  Ti13  1  0.25507100  0.50000000  0.22315400  1
  Ti  Ti14  1  0.33779800  0.50000000  0.55715700  1
  Ti  Ti15  1  0.38379100  0.50000000  0.91115000  1
  N  N16  1  0.64376300  0.00000000  0.10960700  1
  N  N17  1  0.99862100  0.00000000  0.99887600  1
  N  N18  1  0.14376300  0.50000000  0.10960700  1
  N  N19  1  0.49862100  0.50000000  0.99887600  1
  O  O20  1  0.57001400  0.50000000  0.29927300  1
  O  O21  1  0.62726200  0.50000000  0.61434800  1
  O  O22  1  0.66119800  0.50000000  0.89923500  1
  O  O23  1  0.70286400  0.00000000  0.42807000  1
  O  O24  1  0.75664800  0.00000000  0.75150000  1
  O  O25  1  0.74677300  0.50000000  0.25505200  1
  O  O26  1  0.79958900  0.50000000  0.56947500  1
  O  O27  1  0.85793100  0.50000000  0.87940700  1
  O  O28  1  0.83818900  0.00000000  0.09403400  1
  O  O29  1  0.88254100  0.00000000  0.38930300  1
  O  O30  1  0.93221100  0.00000000  0.70353800  1
  O  O31  1  0.07001400  0.00000000  0.29927300  1
  O  O32  1  0.12726200  0.00000000  0.61434800  1
  O  O33  1  0.16119800  0.00000000  0.89923500  1
  O  O34  1  0.20286400  0.50000000  0.42807000  1
  O  O35  1  0.25664800  0.50000000  0.75150000  1
  O  O36  1  0.24677300  0.00000000  0.25505200  1
  O  O37  1  0.29958900  0.00000000  0.56947500  1
  O  O38  1  0.35793100  0.00000000  0.87940700  1
  O  O39  1  0.33818900  0.50000000  0.09403400  1
  O  O40  1  0.38254100  0.50000000  0.38930300  1
  O  O41  1  0.43221100  0.50000000  0.70353800  1
