# generated using pymatgen
data_FeOF
_symmetry_space_group_name_H-M   'P 1'
_cell_length_a   4.74314200
_cell_length_b   3.12166000
_cell_length_c   14.19509236
_cell_angle_alpha   90.00000000
_cell_angle_beta   90.15110344
_cell_angle_gamma   90.00000000
_symmetry_Int_Tables_number   1
_chemical_formula_structural   FeOF
_chemical_formula_sum   'Fe6 O6 F6'
_cell_volume   210.17857281
_cell_formula_units_Z   6
loop_
 _symmetry_equiv_pos_site_id
 _symmetry_equiv_pos_as_xyz
  1  'x, y, z'
loop_
 _atom_site_type_symbol
 _atom_site_label
 _atom_site_symmetry_multiplicity
 _atom_site_fract_x
 _atom_site_fract_y
 _atom_site_fract_z
 _atom_site_occupancy
  Fe  Fe0  1  0.02897200  0.00000000  0.99540900  1
  Fe  Fe1  1  0.02534300  0.00000000  0.32711300  1
  Fe  Fe2  1  0.03201600  0.00000000  0.65931700  1
  Fe  Fe3  1  0.51884300  0.50000000  0.18792000  1
  Fe  Fe4  1  0.45420000  0.50000000  0.49324400  1
  Fe  Fe5  1  0.45426500  0.50000000  0.82761400  1
  O  O6  1  0.19572100  0.50000000  0.26769600  1
  O  O7  1  0.18926600  0.50000000  0.60038100  1
  O  O8  1  0.19915300  0.50000000  0.93838500  1
  O  O9  1  0.29625500  0.00000000  0.76822200  1
  O  O10  1  0.29857000  0.00000000  0.43336600  1
  O  O11  1  0.70694700  0.00000000  0.23407600  1
  F  F12  1  0.30784600  0.00000000  0.10265900  1
  F  F13  1  0.69000700  0.00000000  0.56611800  1
  F  F14  1  0.69654500  0.00000000  0.89929100  1
  F  F15  1  0.80632700  0.50000000  0.06355200  1
  F  F16  1  0.80159800  0.50000000  0.40277800  1
  F  F17  1  0.79812700  0.50000000  0.73285800  1
