# generated using pymatgen
data_Li2MnFeO4
_symmetry_space_group_name_H-M   'P 1'
_cell_length_a   6.03859200
_cell_length_b   6.09237200
_cell_length_c   8.27753600
_cell_angle_alpha   90.00000000
_cell_angle_beta   90.00000000
_cell_angle_gamma   90.00000000
_symmetry_Int_Tables_number   1
_chemical_formula_structural   Li2MnFeO4
_chemical_formula_sum   'Li8 Mn4 Fe4 O16'
_cell_volume   304.52515928
_cell_formula_units_Z   4
loop_
 _symmetry_equiv_pos_site_id
 _symmetry_equiv_pos_as_xyz
  1  'x, y, z'
loop_
 _atom_site_type_symbol
 _atom_site_label
 _atom_site_symmetry_multiplicity
 _atom_site_fract_x
 _atom_site_fract_y
 _atom_site_fract_z
 _atom_site_occupancy
  Li  Li0  1  0.00000000  0.00000000  0.50000000  1
  Li  Li1  1  0.75000000  0.25000000  0.25000000  1
  Li  Li2  1  0.50000000  0.00000000  0.00000000  1
  Li  Li3  1  0.25000000  0.25000000  0.25000000  1
  Li  Li4  1  0.50000000  0.50000000  0.00000000  1
  Li  Li5  1  0.25000000  0.75000000  0.75000000  1
  Li  Li6  1  0.00000000  0.50000000  0.50000000  1
  Li  Li7  1  0.75000000  0.75000000  0.75000000  1
  Mn  Mn8  1  0.00000000  0.50000000  0.00000000  1
  Mn  Mn9  1  0.00000000  0.00000000  0.00000000  1
  Mn  Mn10  1  0.50000000  0.00000000  0.50000000  1
  Mn  Mn11  1  0.50000000  0.50000000  0.50000000  1
  Fe  Fe12  1  0.25000000  0.75000000  0.25000000  1
  Fe  Fe13  1  0.25000000  0.25000000  0.75000000  1
  Fe  Fe14  1  0.75000000  0.25000000  0.75000000  1
  Fe  Fe15  1  0.75000000  0.75000000  0.25000000  1
  O  O16  1  0.25477200  0.25000000  0.50774600  1
  O  O17  1  0.50000000  0.48562000  0.73571700  1
  O  O18  1  0.24522800  0.75000000  0.00774600  1
  O  O19  1  0.00000000  0.51438000  0.23571700  1
  O  O20  1  0.50000000  0.98562000  0.26428300  1
  O  O21  1  0.25477200  0.75000000  0.49225400  1
  O  O22  1  0.00000000  0.01438000  0.76428300  1
  O  O23  1  0.24522800  0.25000000  0.99225400  1
  O  O24  1  0.75477200  0.75000000  0.00774600  1
  O  O25  1  0.00000000  0.98562000  0.23571700  1
  O  O26  1  0.74522800  0.25000000  0.50774600  1
  O  O27  1  0.50000000  0.01438000  0.73571700  1
  O  O28  1  0.00000000  0.48562000  0.76428300  1
  O  O29  1  0.75477200  0.25000000  0.99225400  1
  O  O30  1  0.50000000  0.51438000  0.26428300  1
  O  O31  1  0.74522800  0.75000000  0.49225400  1
