# generated using pymatgen
data_LiVO3
_symmetry_space_group_name_H-M   'P 1'
_cell_length_a   5.25901400
_cell_length_b   8.38830800
_cell_length_c   5.36632691
_cell_angle_alpha   90.00000000
_cell_angle_beta   114.24150300
_cell_angle_gamma   90.00000000
_symmetry_Int_Tables_number   1
_chemical_formula_structural   LiVO3
_chemical_formula_sum   'Li4 V4 O12'
_cell_volume   215.85709951
_cell_formula_units_Z   4
loop_
 _symmetry_equiv_pos_site_id
 _symmetry_equiv_pos_as_xyz
  1  'x, y, z'
loop_
 _atom_site_type_symbol
 _atom_site_label
 _atom_site_symmetry_multiplicity
 _atom_site_fract_x
 _atom_site_fract_y
 _atom_site_fract_z
 _atom_site_occupancy
  Li  Li0  1  0.50000000  0.99334000  0.50000000  1
  Li  Li1  1  0.50000000  0.63143000  0.50000000  1
  Li  Li2  1  0.00000000  0.49334000  0.50000000  1
  Li  Li3  1  0.00000000  0.13143000  0.50000000  1
  V  V4  1  0.50000000  0.17782700  0.00000000  1
  V  V5  1  0.50000000  0.82607700  0.00000000  1
  V  V6  1  0.00000000  0.67782700  0.00000000  1
  V  V7  1  0.00000000  0.32607700  0.00000000  1
  O  O8  1  0.32422100  0.00570300  0.76460400  1
  O  O9  1  0.67577900  0.00570300  0.23539600  1
  O  O10  1  0.28503700  0.81029000  0.21876400  1
  O  O11  1  0.71496300  0.81029000  0.78123600  1
  O  O12  1  0.27337450  0.19059550  0.21157400  1
  O  O13  1  0.72662550  0.19059550  0.78842600  1
  O  O14  1  0.82422100  0.50570300  0.76460400  1
  O  O15  1  0.17577900  0.50570300  0.23539600  1
  O  O16  1  0.78503700  0.31029000  0.21876400  1
  O  O17  1  0.21496300  0.31029000  0.78123600  1
  O  O18  1  0.77337450  0.69059550  0.21157400  1
  O  O19  1  0.22662550  0.69059550  0.78842600  1
