# generated using pymatgen
data_Li2H2SeO5
_symmetry_space_group_name_H-M   'P 1'
_cell_length_a   5.95028200
_cell_length_b   5.03041100
_cell_length_c   8.45180900
_cell_angle_alpha   90.00000000
_cell_angle_beta   104.97579447
_cell_angle_gamma   90.00000000
_symmetry_Int_Tables_number   1
_chemical_formula_structural   Li2H2SeO5
_chemical_formula_sum   'Li4 H4 Se2 O10'
_cell_volume   244.39008959
_cell_formula_units_Z   2
loop_
 _symmetry_equiv_pos_site_id
 _symmetry_equiv_pos_as_xyz
  1  'x, y, z'
loop_
 _atom_site_type_symbol
 _atom_site_label
 _atom_site_symmetry_multiplicity
 _atom_site_fract_x
 _atom_site_fract_y
 _atom_site_fract_z
 _atom_site_occupancy
  Li  Li0  1  0.68760600  0.00903400  0.99621300  1
  Li  Li1  1  0.13658800  0.52849100  0.57917200  1
  Li  Li2  1  0.86341200  0.02849100  0.42082800  1
  Li  Li3  1  0.31239400  0.50903400  0.00378700  1
  H  H4  1  0.68733800  0.13438400  0.64387200  1
  H  H5  1  0.48766600  0.45737500  0.48532600  1
  H  H6  1  0.51233400  0.95737500  0.51467400  1
  H  H7  1  0.31266200  0.63438400  0.35612800  1
  Se  Se8  1  0.87889400  0.51658800  0.19762500  1
  Se  Se9  1  0.12110600  0.01658800  0.80237500  1
  O  O10  1  0.87196500  0.11226100  0.84225000  1
  O  O11  1  0.38865400  0.61861400  0.47537300  1
  O  O12  1  0.34819700  0.13272300  0.94700100  1
  O  O13  1  0.85899300  0.18501400  0.20667600  1
  O  O14  1  0.87387800  0.63657000  0.38203400  1
  O  O15  1  0.12612200  0.13657000  0.61796600  1
  O  O16  1  0.14100700  0.68501400  0.79332400  1
  O  O17  1  0.65180300  0.63272300  0.05299900  1
  O  O18  1  0.61134600  0.11861400  0.52462700  1
  O  O19  1  0.12803500  0.61226100  0.15775000  1
