# generated using pymatgen
data_Rb3TlF6
_symmetry_space_group_name_H-M   'P 1'
_cell_length_a   7.00006600
_cell_length_b   7.00006600
_cell_length_c   9.80687800
_cell_angle_alpha   90.00000000
_cell_angle_beta   90.00000000
_cell_angle_gamma   90.00000000
_symmetry_Int_Tables_number   1
_chemical_formula_structural   Rb3TlF6
_chemical_formula_sum   'Rb6 Tl2 F12'
_cell_volume   480.54608360
_cell_formula_units_Z   2
loop_
 _symmetry_equiv_pos_site_id
 _symmetry_equiv_pos_as_xyz
  1  'x, y, z'
loop_
 _atom_site_type_symbol
 _atom_site_label
 _atom_site_symmetry_multiplicity
 _atom_site_fract_x
 _atom_site_fract_y
 _atom_site_fract_z
 _atom_site_occupancy
  Rb  Rb0  1  0.50000000  0.00000000  0.25000000  1
  Rb  Rb1  1  0.00000000  0.50000000  0.25000000  1
  Rb  Rb2  1  0.00000000  0.00000000  0.50000000  1
  Rb  Rb3  1  0.00000000  0.50000000  0.75000000  1
  Rb  Rb4  1  0.50000000  0.00000000  0.75000000  1
  Rb  Rb5  1  0.50000000  0.50000000  0.00000000  1
  Tl  Tl6  1  0.00000000  0.00000000  0.00000000  1
  Tl  Tl7  1  0.50000000  0.50000000  0.50000000  1
  F  F8  1  0.69009600  0.00000000  0.00000000  1
  F  F9  1  0.00000000  0.69009600  0.00000000  1
  F  F10  1  0.00000000  0.30990400  0.00000000  1
  F  F11  1  0.30990400  0.00000000  0.00000000  1
  F  F12  1  0.00000000  0.00000000  0.23218800  1
  F  F13  1  0.00000000  0.00000000  0.76781200  1
  F  F14  1  0.19009600  0.50000000  0.50000000  1
  F  F15  1  0.50000000  0.19009600  0.50000000  1
  F  F16  1  0.50000000  0.80990400  0.50000000  1
  F  F17  1  0.80990400  0.50000000  0.50000000  1
  F  F18  1  0.50000000  0.50000000  0.73218800  1
  F  F19  1  0.50000000  0.50000000  0.26781200  1
