# generated using pymatgen
data_Yb19(Mg4H27)2
_symmetry_space_group_name_H-M   'P 1'
_cell_length_a   12.05342400
_cell_length_b   12.05342400
_cell_length_c   12.05342400
_cell_angle_alpha   90.00000000
_cell_angle_beta   90.00000000
_cell_angle_gamma   90.00000000
_symmetry_Int_Tables_number   1
_chemical_formula_structural   Yb19(Mg4H27)2
_chemical_formula_sum   'Yb38 Mg16 H108'
_cell_volume   1751.18206893
_cell_formula_units_Z   2
loop_
 _symmetry_equiv_pos_site_id
 _symmetry_equiv_pos_as_xyz
  1  'x, y, z'
loop_
 _atom_site_type_symbol
 _atom_site_label
 _atom_site_symmetry_multiplicity
 _atom_site_fract_x
 _atom_site_fract_y
 _atom_site_fract_z
 _atom_site_occupancy
  Yb  Yb0  1  0.65440350  0.00000000  0.31154550  1
  Yb  Yb1  1  0.84559650  0.50000000  0.18845450  1
  Yb  Yb2  1  0.34559650  0.00000000  0.31154550  1
  Yb  Yb3  1  0.15440350  0.50000000  0.18845450  1
  Yb  Yb4  1  0.31154550  0.65440350  0.00000000  1
  Yb  Yb5  1  0.18845450  0.84559650  0.50000000  1
  Yb  Yb6  1  0.31154550  0.34559650  0.00000000  1
  Yb  Yb7  1  0.18845450  0.15440350  0.50000000  1
  Yb  Yb8  1  0.00000000  0.31154550  0.65440350  1
  Yb  Yb9  1  0.50000000  0.18845450  0.84559650  1
  Yb  Yb10  1  0.00000000  0.31154550  0.34559650  1
  Yb  Yb11  1  0.50000000  0.18845450  0.15440350  1
  Yb  Yb12  1  0.00000000  0.33287000  0.00000000  1
  Yb  Yb13  1  0.00000000  0.66713000  0.00000000  1
  Yb  Yb14  1  0.00000000  0.00000000  0.33287000  1
  Yb  Yb15  1  0.00000000  0.00000000  0.66713000  1
  Yb  Yb16  1  0.33287000  0.00000000  0.00000000  1
  Yb  Yb17  1  0.66713000  0.00000000  0.00000000  1
  Yb  Yb18  1  0.00000000  0.00000000  0.00000000  1
  Yb  Yb19  1  0.15440350  0.50000000  0.81154550  1
  Yb  Yb20  1  0.34559650  0.00000000  0.68845450  1
  Yb  Yb21  1  0.84559650  0.50000000  0.81154550  1
  Yb  Yb22  1  0.65440350  0.00000000  0.68845450  1
  Yb  Yb23  1  0.81154550  0.15440350  0.50000000  1
  Yb  Yb24  1  0.68845450  0.34559650  0.00000000  1
  Yb  Yb25  1  0.81154550  0.84559650  0.50000000  1
  Yb  Yb26  1  0.68845450  0.65440350  0.00000000  1
  Yb  Yb27  1  0.50000000  0.81154550  0.15440350  1
  Yb  Yb28  1  0.00000000  0.68845450  0.34559650  1
  Yb  Yb29  1  0.50000000  0.81154550  0.84559650  1
  Yb  Yb30  1  0.00000000  0.68845450  0.65440350  1
  Yb  Yb31  1  0.50000000  0.83287000  0.50000000  1
  Yb  Yb32  1  0.50000000  0.16713000  0.50000000  1
  Yb  Yb33  1  0.50000000  0.50000000  0.83287000  1
  Yb  Yb34  1  0.50000000  0.50000000  0.16713000  1
  Yb  Yb35  1  0.83287000  0.50000000  0.50000000  1
  Yb  Yb36  1  0.16713000  0.50000000  0.50000000  1
  Yb  Yb37  1  0.50000000  0.50000000  0.50000000  1
  Mg  Mg38  1  0.84267050  0.15732950  0.15732950  1
  Mg  Mg39  1  0.15732950  0.15732950  0.84267050  1
  Mg  Mg40  1  0.15732950  0.84267050  0.15732950  1
  Mg  Mg41  1  0.34267050  0.34267050  0.34267050  1
  Mg  Mg42  1  0.65732950  0.34267050  0.34267050  1
  Mg  Mg43  1  0.34267050  0.34267050  0.65732950  1
  Mg  Mg44  1  0.34267050  0.65732950  0.34267050  1
  Mg  Mg45  1  0.15732950  0.15732950  0.15732950  1
  Mg  Mg46  1  0.34267050  0.65732950  0.65732950  1
  Mg  Mg47  1  0.65732950  0.65732950  0.34267050  1
  Mg  Mg48  1  0.65732950  0.34267050  0.65732950  1
  Mg  Mg49  1  0.84267050  0.84267050  0.84267050  1
  Mg  Mg50  1  0.15732950  0.84267050  0.84267050  1
  Mg  Mg51  1  0.84267050  0.84267050  0.15732950  1
  Mg  Mg52  1  0.84267050  0.15732950  0.84267050  1
  Mg  Mg53  1  0.65732950  0.65732950  0.65732950  1
  H  H54  1  0.33269800  0.81179400  0.61359600  1
  H  H55  1  0.16730200  0.31179400  0.88640400  1
  H  H56  1  0.16730200  0.68820600  0.11359600  1
  H  H57  1  0.33269800  0.18820600  0.38640400  1
  H  H58  1  0.61359600  0.33269800  0.81179400  1
  H  H59  1  0.88640400  0.16730200  0.31179400  1
  H  H60  1  0.11359600  0.16730200  0.68820600  1
  H  H61  1  0.38640400  0.33269800  0.18820600  1
  H  H62  1  0.81179400  0.61359600  0.33269800  1
  H  H63  1  0.31179400  0.88640400  0.16730200  1
  H  H64  1  0.68820600  0.11359600  0.16730200  1
  H  H65  1  0.18820600  0.38640400  0.33269800  1
  H  H66  1  0.16730200  0.68820600  0.88640400  1
  H  H67  1  0.33269800  0.18820600  0.61359600  1
  H  H68  1  0.33269800  0.81179400  0.38640400  1
  H  H69  1  0.16730200  0.31179400  0.11359600  1
  H  H70  1  0.88640400  0.16730200  0.68820600  1
  H  H71  1  0.61359600  0.33269800  0.18820600  1
  H  H72  1  0.38640400  0.33269800  0.81179400  1
  H  H73  1  0.11359600  0.16730200  0.31179400  1
  H  H74  1  0.68820600  0.88640400  0.16730200  1
  H  H75  1  0.18820600  0.61359600  0.33269800  1
  H  H76  1  0.81179400  0.38640400  0.33269800  1
  H  H77  1  0.31179400  0.11359600  0.16730200  1
  H  H78  1  0.31906100  0.50000000  0.89847000  1
  H  H79  1  0.18093900  0.00000000  0.60153000  1
  H  H80  1  0.18093900  0.00000000  0.39847000  1
  H  H81  1  0.31906100  0.50000000  0.10153000  1
  H  H82  1  0.89847000  0.31906100  0.50000000  1
  H  H83  1  0.60153000  0.18093900  0.00000000  1
  H  H84  1  0.39847000  0.18093900  0.00000000  1
  H  H85  1  0.10153000  0.31906100  0.50000000  1
  H  H86  1  0.50000000  0.89847000  0.31906100  1
  H  H87  1  0.00000000  0.60153000  0.18093900  1
  H  H88  1  0.00000000  0.39847000  0.18093900  1
  H  H89  1  0.50000000  0.10153000  0.31906100  1
  H  H90  1  0.39152850  0.50000000  0.67082750  1
  H  H91  1  0.10847150  0.00000000  0.82917250  1
  H  H92  1  0.10847150  0.00000000  0.17082750  1
  H  H93  1  0.39152850  0.50000000  0.32917250  1
  H  H94  1  0.67082750  0.39152850  0.50000000  1
  H  H95  1  0.82917250  0.10847150  0.00000000  1
  H  H96  1  0.17082750  0.10847150  0.00000000  1
  H  H97  1  0.32917250  0.39152850  0.50000000  1
  H  H98  1  0.50000000  0.67082750  0.39152850  1
  H  H99  1  0.00000000  0.82917250  0.10847150  1
  H  H100  1  0.00000000  0.17082750  0.10847150  1
  H  H101  1  0.50000000  0.32917250  0.39152850  1
  H  H102  1  0.00000000  0.11720700  0.50000000  1
  H  H103  1  0.50000000  0.38279300  0.00000000  1
  H  H104  1  0.50000000  0.00000000  0.11720700  1
  H  H105  1  0.00000000  0.50000000  0.38279300  1
  H  H106  1  0.11720700  0.50000000  0.00000000  1
  H  H107  1  0.38279300  0.00000000  0.50000000  1
  H  H108  1  0.83269800  0.31179400  0.11359600  1
  H  H109  1  0.66730200  0.81179400  0.38640400  1
  H  H110  1  0.66730200  0.18820600  0.61359600  1
  H  H111  1  0.83269800  0.68820600  0.88640400  1
  H  H112  1  0.11359600  0.83269800  0.31179400  1
  H  H113  1  0.38640400  0.66730200  0.81179400  1
  H  H114  1  0.61359600  0.66730200  0.18820600  1
  H  H115  1  0.88640400  0.83269800  0.68820600  1
  H  H116  1  0.31179400  0.11359600  0.83269800  1
  H  H117  1  0.81179400  0.38640400  0.66730200  1
  H  H118  1  0.18820600  0.61359600  0.66730200  1
  H  H119  1  0.68820600  0.88640400  0.83269800  1
  H  H120  1  0.66730200  0.18820600  0.38640400  1
  H  H121  1  0.83269800  0.68820600  0.11359600  1
  H  H122  1  0.83269800  0.31179400  0.88640400  1
  H  H123  1  0.66730200  0.81179400  0.61359600  1
  H  H124  1  0.38640400  0.66730200  0.18820600  1
  H  H125  1  0.11359600  0.83269800  0.68820600  1
  H  H126  1  0.88640400  0.83269800  0.31179400  1
  H  H127  1  0.61359600  0.66730200  0.81179400  1
  H  H128  1  0.18820600  0.38640400  0.66730200  1
  H  H129  1  0.68820600  0.11359600  0.83269800  1
  H  H130  1  0.31179400  0.88640400  0.83269800  1
  H  H131  1  0.81179400  0.61359600  0.66730200  1
  H  H132  1  0.81906100  0.00000000  0.39847000  1
  H  H133  1  0.68093900  0.50000000  0.10153000  1
  H  H134  1  0.68093900  0.50000000  0.89847000  1
  H  H135  1  0.81906100  0.00000000  0.60153000  1
  H  H136  1  0.39847000  0.81906100  0.00000000  1
  H  H137  1  0.10153000  0.68093900  0.50000000  1
  H  H138  1  0.89847000  0.68093900  0.50000000  1
  H  H139  1  0.60153000  0.81906100  0.00000000  1
  H  H140  1  0.00000000  0.39847000  0.81906100  1
  H  H141  1  0.50000000  0.10153000  0.68093900  1
  H  H142  1  0.50000000  0.89847000  0.68093900  1
  H  H143  1  0.00000000  0.60153000  0.81906100  1
  H  H144  1  0.89152850  0.00000000  0.17082750  1
  H  H145  1  0.60847150  0.50000000  0.32917250  1
  H  H146  1  0.60847150  0.50000000  0.67082750  1
  H  H147  1  0.89152850  0.00000000  0.82917250  1
  H  H148  1  0.17082750  0.89152850  0.00000000  1
  H  H149  1  0.32917250  0.60847150  0.50000000  1
  H  H150  1  0.67082750  0.60847150  0.50000000  1
  H  H151  1  0.82917250  0.89152850  0.00000000  1
  H  H152  1  0.00000000  0.17082750  0.89152850  1
  H  H153  1  0.50000000  0.32917250  0.60847150  1
  H  H154  1  0.50000000  0.67082750  0.60847150  1
  H  H155  1  0.00000000  0.82917250  0.89152850  1
  H  H156  1  0.50000000  0.61720700  0.00000000  1
  H  H157  1  0.00000000  0.88279300  0.50000000  1
  H  H158  1  0.00000000  0.50000000  0.61720700  1
  H  H159  1  0.50000000  0.00000000  0.88279300  1
  H  H160  1  0.61720700  0.00000000  0.50000000  1
  H  H161  1  0.88279300  0.50000000  0.00000000  1
