# generated using pymatgen
data_SrLaBr5
_symmetry_space_group_name_H-M   'P 1'
_cell_length_a   8.65464800
_cell_length_b   4.47242100
_cell_length_c   14.08298544
_cell_angle_alpha   90.00000000
_cell_angle_beta   92.80010755
_cell_angle_gamma   90.00000000
_symmetry_Int_Tables_number   1
_chemical_formula_structural   SrLaBr5
_chemical_formula_sum   'Sr2 La2 Br10'
_cell_volume   544.46250856
_cell_formula_units_Z   2
loop_
 _symmetry_equiv_pos_site_id
 _symmetry_equiv_pos_as_xyz
  1  'x, y, z'
loop_
 _atom_site_type_symbol
 _atom_site_label
 _atom_site_symmetry_multiplicity
 _atom_site_fract_x
 _atom_site_fract_y
 _atom_site_fract_z
 _atom_site_occupancy
  Sr  Sr0  1  0.07769700  0.75000000  0.14231600  1
  Sr  Sr1  1  0.92230300  0.25000000  0.85768400  1
  La  La2  1  0.42330100  0.25000000  0.34772600  1
  La  La3  1  0.57669900  0.75000000  0.65227400  1
  Br  Br4  1  0.08060400  0.25000000  0.32014700  1
  Br  Br5  1  0.14268500  0.75000000  0.92715800  1
  Br  Br6  1  0.32376600  0.75000000  0.48185200  1
  Br  Br7  1  0.34690200  0.25000000  0.13930200  1
  Br  Br8  1  0.37596600  0.25000000  0.70878900  1
  Br  Br9  1  0.62403400  0.75000000  0.29121100  1
  Br  Br10  1  0.65309800  0.75000000  0.86069800  1
  Br  Br11  1  0.67623400  0.25000000  0.51814800  1
  Br  Br12  1  0.85731500  0.25000000  0.07284200  1
  Br  Br13  1  0.91939600  0.75000000  0.67985300  1
