# generated using pymatgen
data_PNO
_symmetry_space_group_name_H-M   'P 1'
_cell_length_a   4.52413000
_cell_length_b   4.83154400
_cell_length_c   7.04361400
_cell_angle_alpha   90.00000000
_cell_angle_beta   90.00000000
_cell_angle_gamma   90.00000000
_symmetry_Int_Tables_number   1
_chemical_formula_structural   PNO
_chemical_formula_sum   'P4 N4 O4'
_cell_volume   153.96307016
_cell_formula_units_Z   4
loop_
 _symmetry_equiv_pos_site_id
 _symmetry_equiv_pos_as_xyz
  1  'x, y, z'
loop_
 _atom_site_type_symbol
 _atom_site_label
 _atom_site_symmetry_multiplicity
 _atom_site_fract_x
 _atom_site_fract_y
 _atom_site_fract_z
 _atom_site_occupancy
  P  P0  1  0.00000000  0.25000000  0.63951700  1
  P  P1  1  0.00000000  0.75000000  0.86048300  1
  P  P2  1  0.50000000  0.75000000  0.13951700  1
  P  P3  1  0.50000000  0.25000000  0.36048300  1
  N  N4  1  0.85923100  0.50000000  0.75000000  1
  N  N5  1  0.14076900  0.00000000  0.75000000  1
  N  N6  1  0.35923100  0.00000000  0.25000000  1
  N  N7  1  0.64076900  0.50000000  0.25000000  1
  O  O8  1  0.25000000  0.62700000  0.00000000  1
  O  O9  1  0.75000000  0.87300000  0.00000000  1
  O  O10  1  0.75000000  0.12700000  0.50000000  1
  O  O11  1  0.25000000  0.37300000  0.50000000  1
