# generated using pymatgen
data_HoBO3
_symmetry_space_group_name_H-M   'P 1'
_cell_length_a   6.57539800
_cell_length_b   11.40282800
_cell_length_c   8.84418200
_cell_angle_alpha   90.00000000
_cell_angle_beta   90.00000000
_cell_angle_gamma   90.00000000
_symmetry_Int_Tables_number   1
_chemical_formula_structural   HoBO3
_chemical_formula_sum   'Ho12 B12 O36'
_cell_volume   663.12024919
_cell_formula_units_Z   12
loop_
 _symmetry_equiv_pos_site_id
 _symmetry_equiv_pos_as_xyz
  1  'x, y, z'
loop_
 _atom_site_type_symbol
 _atom_site_label
 _atom_site_symmetry_multiplicity
 _atom_site_fract_x
 _atom_site_fract_y
 _atom_site_fract_z
 _atom_site_occupancy
  Ho  Ho0  1  0.00000000  0.17116800  0.00000000  1
  Ho  Ho1  1  0.00000000  0.17116800  0.50000000  1
  Ho  Ho2  1  0.50000000  0.00000000  0.00000000  1
  Ho  Ho3  1  0.50000000  0.00000000  0.50000000  1
  Ho  Ho4  1  0.50000000  0.32883200  0.50000000  1
  Ho  Ho5  1  0.50000000  0.32883200  0.00000000  1
  Ho  Ho6  1  0.50000000  0.67116800  0.00000000  1
  Ho  Ho7  1  0.50000000  0.67116800  0.50000000  1
  Ho  Ho8  1  0.00000000  0.50000000  0.00000000  1
  Ho  Ho9  1  0.00000000  0.50000000  0.50000000  1
  Ho  Ho10  1  0.00000000  0.82883200  0.50000000  1
  Ho  Ho11  1  0.00000000  0.82883200  0.00000000  1
  B  B12  1  0.78651900  0.37968300  0.25000000  1
  B  B13  1  0.21348100  0.37968300  0.75000000  1
  B  B14  1  0.07575000  0.00000000  0.75000000  1
  B  B15  1  0.92425000  0.00000000  0.25000000  1
  B  B16  1  0.28651900  0.12031700  0.25000000  1
  B  B17  1  0.71348100  0.12031700  0.75000000  1
  B  B18  1  0.28651900  0.87968300  0.25000000  1
  B  B19  1  0.71348100  0.87968300  0.75000000  1
  B  B20  1  0.57575000  0.50000000  0.75000000  1
  B  B21  1  0.42425000  0.50000000  0.25000000  1
  B  B22  1  0.78651900  0.62031700  0.25000000  1
  B  B23  1  0.21348100  0.62031700  0.75000000  1
  O  O24  1  0.05709900  0.10900400  0.25000000  1
  O  O25  1  0.94290100  0.10900400  0.75000000  1
  O  O26  1  0.84164800  0.32517100  0.39280200  1
  O  O27  1  0.84164800  0.32517100  0.10719800  1
  O  O28  1  0.15835200  0.32517100  0.89280200  1
  O  O29  1  0.15835200  0.32517100  0.60719800  1
  O  O30  1  0.18395500  0.00000000  0.60564500  1
  O  O31  1  0.61663200  0.00000000  0.75000000  1
  O  O32  1  0.18395500  0.00000000  0.89435500  1
  O  O33  1  0.81604500  0.00000000  0.10564500  1
  O  O34  1  0.81604500  0.00000000  0.39435500  1
  O  O35  1  0.38336800  0.00000000  0.25000000  1
  O  O36  1  0.34164800  0.17482900  0.10719800  1
  O  O37  1  0.65835200  0.17482900  0.60719800  1
  O  O38  1  0.34164800  0.17482900  0.39280200  1
  O  O39  1  0.65835200  0.17482900  0.89280200  1
  O  O40  1  0.55709900  0.39099600  0.25000000  1
  O  O41  1  0.44290100  0.39099600  0.75000000  1
  O  O42  1  0.55709900  0.60900400  0.25000000  1
  O  O43  1  0.44290100  0.60900400  0.75000000  1
  O  O44  1  0.34164800  0.82517100  0.39280200  1
  O  O45  1  0.34164800  0.82517100  0.10719800  1
  O  O46  1  0.65835200  0.82517100  0.89280200  1
  O  O47  1  0.65835200  0.82517100  0.60719800  1
  O  O48  1  0.68395500  0.50000000  0.60564500  1
  O  O49  1  0.11663200  0.50000000  0.75000000  1
  O  O50  1  0.68395500  0.50000000  0.89435500  1
  O  O51  1  0.31604500  0.50000000  0.10564500  1
  O  O52  1  0.31604500  0.50000000  0.39435500  1
  O  O53  1  0.88336800  0.50000000  0.25000000  1
  O  O54  1  0.84164800  0.67482900  0.10719800  1
  O  O55  1  0.15835200  0.67482900  0.60719800  1
  O  O56  1  0.84164800  0.67482900  0.39280200  1
  O  O57  1  0.15835200  0.67482900  0.89280200  1
  O  O58  1  0.05709900  0.89099600  0.25000000  1
  O  O59  1  0.94290100  0.89099600  0.75000000  1
