# generated using pymatgen
data_Na4Bi2B4SO16
_symmetry_space_group_name_H-M   'P 1'
_cell_length_a   14.13745600
_cell_length_b   14.27955800
_cell_length_c   14.88803600
_cell_angle_alpha   90.00000000
_cell_angle_beta   90.00000000
_cell_angle_gamma   90.00000000
_symmetry_Int_Tables_number   1
_chemical_formula_structural   Na4Bi2B4SO16
_chemical_formula_sum   'Na32 Bi16 B32 S8 O128'
_cell_volume   3005.54642966
_cell_formula_units_Z   8
loop_
 _symmetry_equiv_pos_site_id
 _symmetry_equiv_pos_as_xyz
  1  'x, y, z'
loop_
 _atom_site_type_symbol
 _atom_site_label
 _atom_site_symmetry_multiplicity
 _atom_site_fract_x
 _atom_site_fract_y
 _atom_site_fract_z
 _atom_site_occupancy
  Na  Na0  1  0.75000000  0.45399600  0.25000000  1
  Na  Na1  1  0.54538100  0.25000000  0.25000000  1
  Na  Na2  1  0.29538100  0.00000000  0.00000000  1
  Na  Na3  1  0.50000000  0.20399600  0.00000000  1
  Na  Na4  1  0.75000000  0.04600400  0.25000000  1
  Na  Na5  1  0.95461900  0.25000000  0.25000000  1
  Na  Na6  1  0.70461900  0.00000000  0.00000000  1
  Na  Na7  1  0.50000000  0.79600400  0.00000000  1
  Na  Na8  1  0.75000000  0.95399600  0.75000000  1
  Na  Na9  1  0.54538100  0.75000000  0.75000000  1
  Na  Na10  1  0.29538100  0.50000000  0.50000000  1
  Na  Na11  1  0.50000000  0.70399600  0.50000000  1
  Na  Na12  1  0.75000000  0.54600400  0.75000000  1
  Na  Na13  1  0.95461900  0.75000000  0.75000000  1
  Na  Na14  1  0.70461900  0.50000000  0.50000000  1
  Na  Na15  1  0.50000000  0.29600400  0.50000000  1
  Na  Na16  1  0.25000000  0.45399600  0.75000000  1
  Na  Na17  1  0.04538100  0.25000000  0.75000000  1
  Na  Na18  1  0.79538100  0.00000000  0.50000000  1
  Na  Na19  1  0.00000000  0.20399600  0.50000000  1
  Na  Na20  1  0.25000000  0.04600400  0.75000000  1
  Na  Na21  1  0.45461900  0.25000000  0.75000000  1
  Na  Na22  1  0.20461900  0.00000000  0.50000000  1
  Na  Na23  1  0.00000000  0.79600400  0.50000000  1
  Na  Na24  1  0.25000000  0.95399600  0.25000000  1
  Na  Na25  1  0.04538100  0.75000000  0.25000000  1
  Na  Na26  1  0.79538100  0.50000000  0.00000000  1
  Na  Na27  1  0.00000000  0.70399600  0.00000000  1
  Na  Na28  1  0.25000000  0.54600400  0.25000000  1
  Na  Na29  1  0.45461900  0.75000000  0.25000000  1
  Na  Na30  1  0.20461900  0.50000000  0.00000000  1
  Na  Na31  1  0.00000000  0.29600400  0.00000000  1
  Bi  Bi32  1  0.87500000  0.62500000  0.37500000  1
  Bi  Bi33  1  0.62500000  0.87500000  0.37500000  1
  Bi  Bi34  1  0.62500000  0.62500000  0.12500000  1
  Bi  Bi35  1  0.87500000  0.87500000  0.12500000  1
  Bi  Bi36  1  0.87500000  0.12500000  0.87500000  1
  Bi  Bi37  1  0.62500000  0.37500000  0.87500000  1
  Bi  Bi38  1  0.62500000  0.12500000  0.62500000  1
  Bi  Bi39  1  0.87500000  0.37500000  0.62500000  1
  Bi  Bi40  1  0.37500000  0.62500000  0.87500000  1
  Bi  Bi41  1  0.12500000  0.87500000  0.87500000  1
  Bi  Bi42  1  0.12500000  0.62500000  0.62500000  1
  Bi  Bi43  1  0.37500000  0.87500000  0.62500000  1
  Bi  Bi44  1  0.37500000  0.12500000  0.37500000  1
  Bi  Bi45  1  0.12500000  0.37500000  0.37500000  1
  Bi  Bi46  1  0.12500000  0.12500000  0.12500000  1
  Bi  Bi47  1  0.37500000  0.37500000  0.12500000  1
  B  B48  1  0.59459150  0.40686050  0.08717900  1
  B  B49  1  0.34459150  0.15686050  0.16282100  1
  B  B50  1  0.90540850  0.40686050  0.41282100  1
  B  B51  1  0.59459150  0.09313950  0.41282100  1
  B  B52  1  0.15540850  0.15686050  0.33717900  1
  B  B53  1  0.84459150  0.84313950  0.33717900  1
  B  B54  1  0.90540850  0.09313950  0.08717900  1
  B  B55  1  0.65540850  0.84313950  0.16282100  1
  B  B56  1  0.59459150  0.90686050  0.58717900  1
  B  B57  1  0.34459150  0.65686050  0.66282100  1
  B  B58  1  0.90540850  0.90686050  0.91282100  1
  B  B59  1  0.59459150  0.59313950  0.91282100  1
  B  B60  1  0.15540850  0.65686050  0.83717900  1
  B  B61  1  0.84459150  0.34313950  0.83717900  1
  B  B62  1  0.90540850  0.59313950  0.58717900  1
  B  B63  1  0.65540850  0.34313950  0.66282100  1
  B  B64  1  0.09459150  0.40686050  0.58717900  1
  B  B65  1  0.84459150  0.15686050  0.66282100  1
  B  B66  1  0.40540850  0.40686050  0.91282100  1
  B  B67  1  0.09459150  0.09313950  0.91282100  1
  B  B68  1  0.65540850  0.15686050  0.83717900  1
  B  B69  1  0.34459150  0.84313950  0.83717900  1
  B  B70  1  0.40540850  0.09313950  0.58717900  1
  B  B71  1  0.15540850  0.84313950  0.66282100  1
  B  B72  1  0.09459150  0.90686050  0.08717900  1
  B  B73  1  0.84459150  0.65686050  0.16282100  1
  B  B74  1  0.40540850  0.90686050  0.41282100  1
  B  B75  1  0.09459150  0.59313950  0.41282100  1
  B  B76  1  0.65540850  0.65686050  0.33717900  1
  B  B77  1  0.34459150  0.34313950  0.33717900  1
  B  B78  1  0.40540850  0.59313950  0.08717900  1
  B  B79  1  0.15540850  0.34313950  0.16282100  1
  S  S80  1  0.50000000  0.00000000  0.00000000  1
  S  S81  1  0.75000000  0.25000000  0.25000000  1
  S  S82  1  0.50000000  0.50000000  0.50000000  1
  S  S83  1  0.75000000  0.75000000  0.75000000  1
  S  S84  1  0.00000000  0.00000000  0.50000000  1
  S  S85  1  0.25000000  0.25000000  0.75000000  1
  S  S86  1  0.00000000  0.50000000  0.00000000  1
  S  S87  1  0.25000000  0.75000000  0.25000000  1
  O  O88  1  0.10689200  0.97636800  0.15138100  1
  O  O89  1  0.43802900  0.93841450  0.05644050  1
  O  O90  1  0.15535350  0.90246800  0.01486550  1
  O  O91  1  0.40535350  0.15246800  0.23513450  1
  O  O92  1  0.34464650  0.90246800  0.48513450  1
  O  O93  1  0.27356500  0.09070100  0.15064700  1
  O  O94  1  0.06197100  0.93841450  0.44355950  1
  O  O95  1  0.56197100  0.06158550  0.05644050  1
  O  O96  1  0.77356500  0.90929900  0.34935300  1
  O  O97  1  0.65535350  0.09753200  0.48513450  1
  O  O98  1  0.35689200  0.22636800  0.09861900  1
  O  O99  1  0.93802900  0.06158550  0.44355950  1
  O  O100  1  0.39310800  0.97636800  0.34861900  1
  O  O101  1  0.60689200  0.02363200  0.34861900  1
  O  O102  1  0.52356500  0.34070100  0.09935300  1
  O  O103  1  0.22643500  0.09070100  0.34935300  1
  O  O104  1  0.02356500  0.65929900  0.40064700  1
  O  O105  1  0.72643500  0.90929900  0.15064700  1
  O  O106  1  0.14310800  0.22636800  0.40138100  1
  O  O107  1  0.85689200  0.77363200  0.40138100  1
  O  O108  1  0.81197100  0.18841450  0.30644050  1
  O  O109  1  0.89310800  0.02363200  0.15138100  1
  O  O110  1  0.09464650  0.15246800  0.26486550  1
  O  O111  1  0.97643500  0.34070100  0.40064700  1
  O  O112  1  0.68802900  0.18841450  0.19355950  1
  O  O113  1  0.68802900  0.31158550  0.30644050  1
  O  O114  1  0.47643500  0.65929900  0.09935300  1
  O  O115  1  0.90535350  0.84753200  0.26486550  1
  O  O116  1  0.84464650  0.09753200  0.01486550  1
  O  O117  1  0.59464650  0.84753200  0.23513450  1
  O  O118  1  0.81197100  0.31158550  0.19355950  1
  O  O119  1  0.64310800  0.77363200  0.09861900  1
  O  O120  1  0.10689200  0.47636800  0.65138100  1
  O  O121  1  0.43802900  0.43841450  0.55644050  1
  O  O122  1  0.15535350  0.40246800  0.51486550  1
  O  O123  1  0.40535350  0.65246800  0.73513450  1
  O  O124  1  0.34464650  0.40246800  0.98513450  1
  O  O125  1  0.27356500  0.59070100  0.65064700  1
  O  O126  1  0.06197100  0.43841450  0.94355950  1
  O  O127  1  0.56197100  0.56158550  0.55644050  1
  O  O128  1  0.77356500  0.40929900  0.84935300  1
  O  O129  1  0.65535350  0.59753200  0.98513450  1
  O  O130  1  0.35689200  0.72636800  0.59861900  1
  O  O131  1  0.93802900  0.56158550  0.94355950  1
  O  O132  1  0.39310800  0.47636800  0.84861900  1
  O  O133  1  0.60689200  0.52363200  0.84861900  1
  O  O134  1  0.52356500  0.84070100  0.59935300  1
  O  O135  1  0.22643500  0.59070100  0.84935300  1
  O  O136  1  0.02356500  0.15929900  0.90064700  1
  O  O137  1  0.72643500  0.40929900  0.65064700  1
  O  O138  1  0.14310800  0.72636800  0.90138100  1
  O  O139  1  0.85689200  0.27363200  0.90138100  1
  O  O140  1  0.81197100  0.68841450  0.80644050  1
  O  O141  1  0.89310800  0.52363200  0.65138100  1
  O  O142  1  0.09464650  0.65246800  0.76486550  1
  O  O143  1  0.97643500  0.84070100  0.90064700  1
  O  O144  1  0.68802900  0.68841450  0.69355950  1
  O  O145  1  0.68802900  0.81158550  0.80644050  1
  O  O146  1  0.47643500  0.15929900  0.59935300  1
  O  O147  1  0.90535350  0.34753200  0.76486550  1
  O  O148  1  0.84464650  0.59753200  0.51486550  1
  O  O149  1  0.59464650  0.34753200  0.73513450  1
  O  O150  1  0.81197100  0.81158550  0.69355950  1
  O  O151  1  0.64310800  0.27363200  0.59861900  1
  O  O152  1  0.60689200  0.97636800  0.65138100  1
  O  O153  1  0.93802900  0.93841450  0.55644050  1
  O  O154  1  0.65535350  0.90246800  0.51486550  1
  O  O155  1  0.90535350  0.15246800  0.73513450  1
  O  O156  1  0.84464650  0.90246800  0.98513450  1
  O  O157  1  0.77356500  0.09070100  0.65064700  1
  O  O158  1  0.56197100  0.93841450  0.94355950  1
  O  O159  1  0.06197100  0.06158550  0.55644050  1
  O  O160  1  0.27356500  0.90929900  0.84935300  1
  O  O161  1  0.15535350  0.09753200  0.98513450  1
  O  O162  1  0.85689200  0.22636800  0.59861900  1
  O  O163  1  0.43802900  0.06158550  0.94355950  1
  O  O164  1  0.89310800  0.97636800  0.84861900  1
  O  O165  1  0.10689200  0.02363200  0.84861900  1
  O  O166  1  0.02356500  0.34070100  0.59935300  1
  O  O167  1  0.72643500  0.09070100  0.84935300  1
  O  O168  1  0.52356500  0.65929900  0.90064700  1
  O  O169  1  0.22643500  0.90929900  0.65064700  1
  O  O170  1  0.64310800  0.22636800  0.90138100  1
  O  O171  1  0.35689200  0.77363200  0.90138100  1
  O  O172  1  0.31197100  0.18841450  0.80644050  1
  O  O173  1  0.39310800  0.02363200  0.65138100  1
  O  O174  1  0.59464650  0.15246800  0.76486550  1
  O  O175  1  0.47643500  0.34070100  0.90064700  1
  O  O176  1  0.18802900  0.18841450  0.69355950  1
  O  O177  1  0.18802900  0.31158550  0.80644050  1
  O  O178  1  0.97643500  0.65929900  0.59935300  1
  O  O179  1  0.40535350  0.84753200  0.76486550  1
  O  O180  1  0.34464650  0.09753200  0.51486550  1
  O  O181  1  0.09464650  0.84753200  0.73513450  1
  O  O182  1  0.31197100  0.31158550  0.69355950  1
  O  O183  1  0.14310800  0.77363200  0.59861900  1
  O  O184  1  0.60689200  0.47636800  0.15138100  1
  O  O185  1  0.93802900  0.43841450  0.05644050  1
  O  O186  1  0.65535350  0.40246800  0.01486550  1
  O  O187  1  0.90535350  0.65246800  0.23513450  1
  O  O188  1  0.84464650  0.40246800  0.48513450  1
  O  O189  1  0.77356500  0.59070100  0.15064700  1
  O  O190  1  0.56197100  0.43841450  0.44355950  1
  O  O191  1  0.06197100  0.56158550  0.05644050  1
  O  O192  1  0.27356500  0.40929900  0.34935300  1
  O  O193  1  0.15535350  0.59753200  0.48513450  1
  O  O194  1  0.85689200  0.72636800  0.09861900  1
  O  O195  1  0.43802900  0.56158550  0.44355950  1
  O  O196  1  0.89310800  0.47636800  0.34861900  1
  O  O197  1  0.10689200  0.52363200  0.34861900  1
  O  O198  1  0.02356500  0.84070100  0.09935300  1
  O  O199  1  0.72643500  0.59070100  0.34935300  1
  O  O200  1  0.52356500  0.15929900  0.40064700  1
  O  O201  1  0.22643500  0.40929900  0.15064700  1
  O  O202  1  0.64310800  0.72636800  0.40138100  1
  O  O203  1  0.35689200  0.27363200  0.40138100  1
  O  O204  1  0.31197100  0.68841450  0.30644050  1
  O  O205  1  0.39310800  0.52363200  0.15138100  1
  O  O206  1  0.59464650  0.65246800  0.26486550  1
  O  O207  1  0.47643500  0.84070100  0.40064700  1
  O  O208  1  0.18802900  0.68841450  0.19355950  1
  O  O209  1  0.18802900  0.81158550  0.30644050  1
  O  O210  1  0.97643500  0.15929900  0.09935300  1
  O  O211  1  0.40535350  0.34753200  0.26486550  1
  O  O212  1  0.34464650  0.59753200  0.01486550  1
  O  O213  1  0.09464650  0.34753200  0.23513450  1
  O  O214  1  0.31197100  0.81158550  0.19355950  1
  O  O215  1  0.14310800  0.27363200  0.09861900  1
