# generated using pymatgen
data_SiH10C2N4(OF3)2
_symmetry_space_group_name_H-M   'P 1'
_cell_length_a   8.29000100
_cell_length_b   9.22598800
_cell_length_c   12.73360200
_cell_angle_alpha   90.00000000
_cell_angle_beta   90.00000000
_cell_angle_gamma   90.00000000
_symmetry_Int_Tables_number   1
_chemical_formula_structural   SiH10C2N4(OF3)2
_chemical_formula_sum   'Si4 H40 C8 N16 O8 F24'
_cell_volume   973.90980865
_cell_formula_units_Z   4
loop_
 _symmetry_equiv_pos_site_id
 _symmetry_equiv_pos_as_xyz
  1  'x, y, z'
loop_
 _atom_site_type_symbol
 _atom_site_label
 _atom_site_symmetry_multiplicity
 _atom_site_fract_x
 _atom_site_fract_y
 _atom_site_fract_z
 _atom_site_occupancy
  Si  Si0  1  0.00000000  0.50000000  0.50000000  1
  Si  Si1  1  0.50000000  0.00000000  0.50000000  1
  Si  Si2  1  0.50000000  0.50000000  0.00000000  1
  Si  Si3  1  0.00000000  0.00000000  0.00000000  1
  H  H4  1  0.58699800  0.73451200  0.33446300  1
  H  H5  1  0.91300200  0.23451200  0.66553700  1
  H  H6  1  0.08699800  0.26548800  0.16553700  1
  H  H7  1  0.41300200  0.76548800  0.83446300  1
  H  H8  1  0.41300200  0.26548800  0.66553700  1
  H  H9  1  0.08699800  0.76548800  0.33446300  1
  H  H10  1  0.91300200  0.73451200  0.83446300  1
  H  H11  1  0.58699800  0.23451200  0.16553700  1
  H  H12  1  0.74531300  0.61000600  0.34806900  1
  H  H13  1  0.75468700  0.11000600  0.65193100  1
  H  H14  1  0.24531300  0.38999400  0.15193100  1
  H  H15  1  0.25468700  0.88999400  0.84806900  1
  H  H16  1  0.25468700  0.38999400  0.65193100  1
  H  H17  1  0.24531300  0.88999400  0.34806900  1
  H  H18  1  0.75468700  0.61000600  0.84806900  1
  H  H19  1  0.74531300  0.11000600  0.15193100  1
  H  H20  1  0.66954600  0.37185600  0.40521400  1
  H  H21  1  0.83045400  0.87185600  0.59478600  1
  H  H22  1  0.16954600  0.62814400  0.09478600  1
  H  H23  1  0.33045400  0.12814400  0.90521400  1
  H  H24  1  0.33045400  0.62814400  0.59478600  1
  H  H25  1  0.16954600  0.12814400  0.40521400  1
  H  H26  1  0.83045400  0.37185600  0.90521400  1
  H  H27  1  0.66954600  0.87185600  0.09478600  1
  H  H28  1  0.46749000  0.31814900  0.39804100  1
  H  H29  1  0.03251000  0.81814900  0.60195900  1
  H  H30  1  0.96749000  0.68185100  0.10195900  1
  H  H31  1  0.53251000  0.18185100  0.89804100  1
  H  H32  1  0.53251000  0.68185100  0.60195900  1
  H  H33  1  0.96749000  0.18185100  0.39804100  1
  H  H34  1  0.03251000  0.31814900  0.89804100  1
  H  H35  1  0.46749000  0.81814900  0.10195900  1
  H  H36  1  0.28438600  0.50299000  0.37544200  1
  H  H37  1  0.21561400  0.00299000  0.62455800  1
  H  H38  1  0.78438600  0.49701000  0.12455800  1
  H  H39  1  0.71561400  0.99701000  0.87544200  1
  H  H40  1  0.71561400  0.49701000  0.62455800  1
  H  H41  1  0.78438600  0.99701000  0.37544200  1
  H  H42  1  0.21561400  0.50299000  0.87544200  1
  H  H43  1  0.28438600  0.00299000  0.12455800  1
  C  C44  1  0.51496800  0.52902400  0.35383100  1
  C  C45  1  0.98503200  0.02902400  0.64616900  1
  C  C46  1  0.01496800  0.47097600  0.14616900  1
  C  C47  1  0.48503200  0.97097600  0.85383100  1
  C  C48  1  0.48503200  0.47097600  0.64616900  1
  C  C49  1  0.01496800  0.97097600  0.35383100  1
  C  C50  1  0.98503200  0.52902400  0.85383100  1
  C  C51  1  0.51496800  0.02902400  0.14616900  1
  N  N52  1  0.62573400  0.62946900  0.33426000  1
  N  N53  1  0.87426600  0.12946900  0.66574000  1
  N  N54  1  0.12573400  0.37053100  0.16574000  1
  N  N55  1  0.37426600  0.87053100  0.83426000  1
  N  N56  1  0.37426600  0.37053100  0.66574000  1
  N  N57  1  0.12573400  0.87053100  0.33426000  1
  N  N58  1  0.87426600  0.62946900  0.83426000  1
  N  N59  1  0.62573400  0.12946900  0.16574000  1
  N  N60  1  0.55295200  0.39574400  0.38456500  1
  N  N61  1  0.94704800  0.89574400  0.61543500  1
  N  N62  1  0.05295200  0.60425600  0.11543500  1
  N  N63  1  0.44704800  0.10425600  0.88456500  1
  N  N64  1  0.44704800  0.60425600  0.61543500  1
  N  N65  1  0.05295200  0.10425600  0.38456500  1
  N  N66  1  0.94704800  0.39574400  0.88456500  1
  N  N67  1  0.55295200  0.89574400  0.11543500  1
  O  O68  1  0.36369300  0.56896000  0.33864100  1
  O  O69  1  0.13630700  0.06896000  0.66135900  1
  O  O70  1  0.86369300  0.43104000  0.16135900  1
  O  O71  1  0.63630700  0.93104000  0.83864100  1
  O  O72  1  0.63630700  0.43104000  0.66135900  1
  O  O73  1  0.86369300  0.93104000  0.33864100  1
  O  O74  1  0.13630700  0.56896000  0.83864100  1
  O  O75  1  0.36369300  0.06896000  0.16135900  1
  F  F76  1  0.96858200  0.59555900  0.38647400  1
  F  F77  1  0.53141800  0.09555900  0.61352600  1
  F  F78  1  0.46858200  0.40444100  0.11352600  1
  F  F79  1  0.03141800  0.90444100  0.88647400  1
  F  F80  1  0.03141800  0.40444100  0.61352600  1
  F  F81  1  0.46858200  0.90444100  0.38647400  1
  F  F82  1  0.53141800  0.59555900  0.88647400  1
  F  F83  1  0.96858200  0.09555900  0.11352600  1
  F  F84  1  0.12168900  0.63613800  0.54670800  1
  F  F85  1  0.37831100  0.13613800  0.45329200  1
  F  F86  1  0.62168900  0.36386200  0.95329200  1
  F  F87  1  0.87831100  0.86386200  0.04670800  1
  F  F88  1  0.87831100  0.36386200  0.45329200  1
  F  F89  1  0.62168900  0.86386200  0.54670800  1
  F  F90  1  0.37831100  0.63613800  0.04670800  1
  F  F91  1  0.12168900  0.13613800  0.95329200  1
  F  F92  1  0.16551800  0.41600100  0.44344600  1
  F  F93  1  0.33448200  0.91600100  0.55655400  1
  F  F94  1  0.66551800  0.58399900  0.05655400  1
  F  F95  1  0.83448200  0.08399900  0.94344600  1
  F  F96  1  0.83448200  0.58399900  0.55655400  1
  F  F97  1  0.66551800  0.08399900  0.44344600  1
  F  F98  1  0.33448200  0.41600100  0.94344600  1
  F  F99  1  0.16551800  0.91600100  0.05655400  1
