# generated using pymatgen
data_Li4Nb2Co3Sn3O16
_symmetry_space_group_name_H-M   'P 1'
_cell_length_a   10.71250694
_cell_length_b   6.15689559
_cell_length_c   9.90743250
_cell_angle_alpha   90.00000000
_cell_angle_beta   90.23934622
_cell_angle_gamma   90.00000000
_symmetry_Int_Tables_number   1
_chemical_formula_structural   Li4Nb2Co3Sn3O16
_chemical_formula_sum   'Li8 Nb4 Co6 Sn6 O32'
_cell_volume   653.44680355
_cell_formula_units_Z   2
loop_
 _symmetry_equiv_pos_site_id
 _symmetry_equiv_pos_as_xyz
  1  'x, y, z'
loop_
 _atom_site_type_symbol
 _atom_site_label
 _atom_site_symmetry_multiplicity
 _atom_site_fract_x
 _atom_site_fract_y
 _atom_site_fract_z
 _atom_site_occupancy
  Li  Li0  1  0.32535375  0.00000000  0.90142200  1
  Li  Li1  1  0.01108250  0.00000000  0.98355450  1
  Li  Li2  1  0.00481650  0.00000000  0.49752850  1
  Li  Li3  1  0.16940600  0.50000000  0.40568350  1
  Li  Li4  1  0.82535375  0.50000000  0.90142200  1
  Li  Li5  1  0.51108250  0.50000000  0.98355450  1
  Li  Li6  1  0.50481650  0.50000000  0.49752850  1
  Li  Li7  1  0.66940600  0.00000000  0.40568350  1
  Nb  Nb8  1  0.32408650  0.00000000  0.49776950  1
  Nb  Nb9  1  0.14934250  0.50000000  0.97834150  1
  Nb  Nb10  1  0.82408650  0.50000000  0.49776950  1
  Nb  Nb11  1  0.64934250  0.00000000  0.97834150  1
  Co  Co12  1  0.17236375  0.00000000  0.21390200  1
  Co  Co13  1  0.08174200  0.74221800  0.71178600  1
  Co  Co14  1  0.08174200  0.25778200  0.71178600  1
  Co  Co15  1  0.67236375  0.50000000  0.21390200  1
  Co  Co16  1  0.58174200  0.24221800  0.71178600  1
  Co  Co17  1  0.58174200  0.75778200  0.71178600  1
  Sn  Sn18  1  0.32803875  0.50000000  0.71611500  1
  Sn  Sn19  1  0.41651575  0.24719275  0.21437300  1
  Sn  Sn20  1  0.41651575  0.75280725  0.21437300  1
  Sn  Sn21  1  0.82803875  0.00000000  0.71611500  1
  Sn  Sn22  1  0.91651575  0.74719275  0.21437300  1
  Sn  Sn23  1  0.91651575  0.25280725  0.21437300  1
  O  O24  1  0.48778400  0.00000000  0.33999800  1
  O  O25  1  0.33681200  0.00000000  0.10234600  1
  O  O26  1  0.00403525  0.00000000  0.31178500  1
  O  O27  1  0.49997300  0.50000000  0.79911300  1
  O  O28  1  0.34153050  0.50000000  0.09502100  1
  O  O29  1  0.17058725  0.00000000  0.58695100  1
  O  O30  1  0.16579300  0.50000000  0.60975250  1
  O  O31  1  0.01291200  0.50000000  0.85578000  1
  O  O32  1  0.41109050  0.24671900  0.58814250  1
  O  O33  1  0.41109050  0.75328100  0.58814250  1
  O  O34  1  0.26573200  0.22099750  0.34683750  1
  O  O35  1  0.26573200  0.77900250  0.34683750  1
  O  O36  1  0.24146850  0.71670350  0.85287400  1
  O  O37  1  0.24146850  0.28329650  0.85287400  1
  O  O38  1  0.08480800  0.74553900  0.09228900  1
  O  O39  1  0.08480800  0.25446100  0.09228900  1
  O  O40  1  0.98778400  0.50000000  0.33999800  1
  O  O41  1  0.83681200  0.50000000  0.10234600  1
  O  O42  1  0.50403525  0.50000000  0.31178500  1
  O  O43  1  0.99997300  0.00000000  0.79911300  1
  O  O44  1  0.84153050  0.00000000  0.09502100  1
  O  O45  1  0.67058725  0.50000000  0.58695100  1
  O  O46  1  0.66579300  0.00000000  0.60975250  1
  O  O47  1  0.51291200  0.00000000  0.85578000  1
  O  O48  1  0.91109050  0.74671900  0.58814250  1
  O  O49  1  0.91109050  0.25328100  0.58814250  1
  O  O50  1  0.76573200  0.72099750  0.34683750  1
  O  O51  1  0.76573200  0.27900250  0.34683750  1
  O  O52  1  0.74146850  0.21670350  0.85287400  1
  O  O53  1  0.74146850  0.78329650  0.85287400  1
  O  O54  1  0.58480800  0.24553900  0.09228900  1
  O  O55  1  0.58480800  0.75446100  0.09228900  1
