# generated using pymatgen
data_La2Ti3O9
_symmetry_space_group_name_H-M   'P 1'
_cell_length_a   7.01012971
_cell_length_b   7.01012971
_cell_length_c   10.69716900
_cell_angle_alpha   90.00000000
_cell_angle_beta   90.00000000
_cell_angle_gamma   120.00000000
_symmetry_Int_Tables_number   1
_chemical_formula_structural   La2Ti3O9
_chemical_formula_sum   'La4 Ti6 O18'
_cell_volume   455.25172167
_cell_formula_units_Z   2
loop_
 _symmetry_equiv_pos_site_id
 _symmetry_equiv_pos_as_xyz
  1  'x, y, z'
loop_
 _atom_site_type_symbol
 _atom_site_label
 _atom_site_symmetry_multiplicity
 _atom_site_fract_x
 _atom_site_fract_y
 _atom_site_fract_z
 _atom_site_occupancy
  La  La0  1  0.66666667  0.33333333  0.45934200  1
  La  La1  1  0.66666667  0.33333333  0.04065800  1
  La  La2  1  0.33333333  0.66666667  0.95934200  1
  La  La3  1  0.33333333  0.66666667  0.54065800  1
  Ti  Ti4  1  0.92525000  0.69462300  0.75000000  1
  Ti  Ti5  1  0.30537700  0.23062700  0.75000000  1
  Ti  Ti6  1  0.23062700  0.92525000  0.25000000  1
  Ti  Ti7  1  0.76937300  0.07475000  0.75000000  1
  Ti  Ti8  1  0.69462300  0.76937300  0.25000000  1
  Ti  Ti9  1  0.07475000  0.30537700  0.25000000  1
  O  O10  1  0.92703600  0.71773200  0.25000000  1
  O  O11  1  0.93635500  0.56043200  0.60829700  1
  O  O12  1  0.93635500  0.56043200  0.89170300  1
  O  O13  1  0.43956800  0.37592300  0.89170300  1
  O  O14  1  0.43956800  0.37592300  0.60829700  1
  O  O15  1  0.28226800  0.20930400  0.25000000  1
  O  O16  1  0.20930400  0.92703600  0.75000000  1
  O  O17  1  0.62407700  0.06364500  0.60829700  1
  O  O18  1  0.62407700  0.06364500  0.89170300  1
  O  O19  1  0.37592300  0.93635500  0.10829700  1
  O  O20  1  0.37592300  0.93635500  0.39170300  1
  O  O21  1  0.79069600  0.07296400  0.25000000  1
  O  O22  1  0.71773200  0.79069600  0.75000000  1
  O  O23  1  0.56043200  0.62407700  0.10829700  1
  O  O24  1  0.56043200  0.62407700  0.39170300  1
  O  O25  1  0.06364500  0.43956800  0.10829700  1
  O  O26  1  0.06364500  0.43956800  0.39170300  1
  O  O27  1  0.07296400  0.28226800  0.75000000  1
