# generated using pymatgen
data_Li3BiO3
_symmetry_space_group_name_H-M   'P 1'
_cell_length_a   8.94763000
_cell_length_b   8.94763000
_cell_length_c   8.94763000
_cell_angle_alpha   90.00000000
_cell_angle_beta   90.00000000
_cell_angle_gamma   90.00000000
_symmetry_Int_Tables_number   1
_chemical_formula_structural   Li3BiO3
_chemical_formula_sum   'Li24 Bi8 O24'
_cell_volume   716.34799703
_cell_formula_units_Z   8
loop_
 _symmetry_equiv_pos_site_id
 _symmetry_equiv_pos_as_xyz
  1  'x, y, z'
loop_
 _atom_site_type_symbol
 _atom_site_label
 _atom_site_symmetry_multiplicity
 _atom_site_fract_x
 _atom_site_fract_y
 _atom_site_fract_z
 _atom_site_occupancy
  Li  Li0  1  0.87795200  0.12204800  0.58554600  1
  Li  Li1  1  0.87795200  0.58554600  0.12204800  1
  Li  Li2  1  0.91445400  0.37795200  0.37795200  1
  Li  Li3  1  0.12204800  0.12204800  0.41445400  1
  Li  Li4  1  0.12204800  0.41445400  0.12204800  1
  Li  Li5  1  0.12204800  0.87795200  0.58554600  1
  Li  Li6  1  0.12204800  0.58554600  0.87795200  1
  Li  Li7  1  0.37795200  0.37795200  0.91445400  1
  Li  Li8  1  0.37795200  0.91445400  0.37795200  1
  Li  Li9  1  0.41445400  0.12204800  0.12204800  1
  Li  Li10  1  0.58554600  0.87795200  0.12204800  1
  Li  Li11  1  0.58554600  0.12204800  0.87795200  1
  Li  Li12  1  0.37795200  0.62204800  0.08554600  1
  Li  Li13  1  0.37795200  0.08554600  0.62204800  1
  Li  Li14  1  0.41445400  0.87795200  0.87795200  1
  Li  Li15  1  0.62204800  0.62204800  0.91445400  1
  Li  Li16  1  0.62204800  0.91445400  0.62204800  1
  Li  Li17  1  0.62204800  0.37795200  0.08554600  1
  Li  Li18  1  0.62204800  0.08554600  0.37795200  1
  Li  Li19  1  0.87795200  0.87795200  0.41445400  1
  Li  Li20  1  0.87795200  0.41445400  0.87795200  1
  Li  Li21  1  0.91445400  0.62204800  0.62204800  1
  Li  Li22  1  0.08554600  0.37795200  0.62204800  1
  Li  Li23  1  0.08554600  0.62204800  0.37795200  1
  Bi  Bi24  1  0.85925450  0.14074550  0.14074550  1
  Bi  Bi25  1  0.14074550  0.85925450  0.14074550  1
  Bi  Bi26  1  0.14074550  0.14074550  0.85925450  1
  Bi  Bi27  1  0.35925450  0.35925450  0.35925450  1
  Bi  Bi28  1  0.35925450  0.64074550  0.64074550  1
  Bi  Bi29  1  0.64074550  0.35925450  0.64074550  1
  Bi  Bi30  1  0.64074550  0.64074550  0.35925450  1
  Bi  Bi31  1  0.85925450  0.85925450  0.85925450  1
  O  O32  1  0.87186000  0.12814000  0.37281700  1
  O  O33  1  0.87186000  0.37281700  0.12814000  1
  O  O34  1  0.12814000  0.62718300  0.12814000  1
  O  O35  1  0.12814000  0.12814000  0.62718300  1
  O  O36  1  0.12814000  0.87186000  0.37281700  1
  O  O37  1  0.12814000  0.37281700  0.87186000  1
  O  O38  1  0.12718300  0.37186000  0.37186000  1
  O  O39  1  0.37281700  0.87186000  0.12814000  1
  O  O40  1  0.37281700  0.12814000  0.87186000  1
  O  O41  1  0.37186000  0.12718300  0.37186000  1
  O  O42  1  0.37186000  0.37186000  0.12718300  1
  O  O43  1  0.62718300  0.12814000  0.12814000  1
  O  O44  1  0.37186000  0.62814000  0.87281700  1
  O  O45  1  0.37186000  0.87281700  0.62814000  1
  O  O46  1  0.62814000  0.12718300  0.62814000  1
  O  O47  1  0.62814000  0.62814000  0.12718300  1
  O  O48  1  0.62814000  0.37186000  0.87281700  1
  O  O49  1  0.62814000  0.87281700  0.37186000  1
  O  O50  1  0.62718300  0.87186000  0.87186000  1
  O  O51  1  0.87281700  0.37186000  0.62814000  1
  O  O52  1  0.87281700  0.62814000  0.37186000  1
  O  O53  1  0.87186000  0.62718300  0.87186000  1
  O  O54  1  0.87186000  0.87186000  0.62718300  1
  O  O55  1  0.12718300  0.62814000  0.62814000  1
