# generated using pymatgen
data_SbH3SO6
_symmetry_space_group_name_H-M   'P 1'
_cell_length_a   6.10886800
_cell_length_b   13.52425600
_cell_length_c   6.82150577
_cell_angle_alpha   90.00000000
_cell_angle_beta   117.90122672
_cell_angle_gamma   90.00000000
_symmetry_Int_Tables_number   1
_chemical_formula_structural   SbH3SO6
_chemical_formula_sum   'Sb4 H12 S4 O24'
_cell_volume   498.06561340
_cell_formula_units_Z   4
loop_
 _symmetry_equiv_pos_site_id
 _symmetry_equiv_pos_as_xyz
  1  'x, y, z'
loop_
 _atom_site_type_symbol
 _atom_site_label
 _atom_site_symmetry_multiplicity
 _atom_site_fract_x
 _atom_site_fract_y
 _atom_site_fract_z
 _atom_site_occupancy
  Sb  Sb0  1  0.94829200  0.61357500  0.59799600  1
  Sb  Sb1  1  0.05170800  0.11357500  0.90200400  1
  Sb  Sb2  1  0.05170800  0.38642500  0.40200400  1
  Sb  Sb3  1  0.94829200  0.88642500  0.09799600  1
  H  H4  1  0.77225400  0.42795800  0.62804800  1
  H  H5  1  0.22774600  0.92795800  0.87195200  1
  H  H6  1  0.22774600  0.57204200  0.37195200  1
  H  H7  1  0.77225400  0.07204200  0.12804800  1
  H  H8  1  0.67936200  0.52794700  0.81166500  1
  H  H9  1  0.32063800  0.02794700  0.68833500  1
  H  H10  1  0.32063800  0.47205300  0.18833500  1
  H  H11  1  0.67936200  0.97205300  0.31166500  1
  H  H12  1  0.74051700  0.63541900  0.92238000  1
  H  H13  1  0.25948300  0.13541900  0.57762000  1
  H  H14  1  0.25948300  0.36458100  0.07762000  1
  H  H15  1  0.74051700  0.86458100  0.42238000  1
  S  S16  1  0.59954900  0.15910100  0.42426700  1
  S  S17  1  0.40045100  0.65910100  0.07573300  1
  S  S18  1  0.40045100  0.84089900  0.57573300  1
  S  S19  1  0.59954900  0.34089900  0.92426700  1
  O  O20  1  0.70706800  0.08578800  0.62401500  1
  O  O21  1  0.29293200  0.58578800  0.87598500  1
  O  O22  1  0.29293200  0.91421200  0.37598500  1
  O  O23  1  0.70706800  0.41421200  0.12401500  1
  O  O24  1  0.77772600  0.23957900  0.47418000  1
  O  O25  1  0.22227400  0.73957900  0.02582000  1
  O  O26  1  0.22227400  0.76042100  0.52582000  1
  O  O27  1  0.77772600  0.26042100  0.97418000  1
  O  O28  1  0.56482700  0.09964400  0.22583300  1
  O  O29  1  0.43517300  0.59964400  0.27416700  1
  O  O30  1  0.43517300  0.90035600  0.77416700  1
  O  O31  1  0.56482700  0.40035600  0.72583300  1
  O  O32  1  0.35601300  0.19095900  0.39690400  1
  O  O33  1  0.64398700  0.69095900  0.10309600  1
  O  O34  1  0.64398700  0.80904100  0.60309600  1
  O  O35  1  0.35601300  0.30904100  0.89690400  1
  O  O36  1  0.87622800  0.46198600  0.57138300  1
  O  O37  1  0.12377200  0.96198600  0.92861700  1
  O  O38  1  0.12377200  0.53801400  0.42861700  1
  O  O39  1  0.87622800  0.03801400  0.07138300  1
  O  O40  1  0.78131200  0.58767500  0.83341000  1
  O  O41  1  0.21868800  0.08767500  0.66659000  1
  O  O42  1  0.21868800  0.41232500  0.16659000  1
  O  O43  1  0.78131200  0.91232500  0.33341000  1
