# generated using pymatgen
data_Sr2CaI6
_symmetry_space_group_name_H-M   'P 1'
_cell_length_a   8.15302300
_cell_length_b   9.19257300
_cell_length_c   22.28518100
_cell_angle_alpha   90.00000000
_cell_angle_beta   90.00000000
_cell_angle_gamma   90.00000000
_symmetry_Int_Tables_number   1
_chemical_formula_structural   Sr2CaI6
_chemical_formula_sum   'Sr8 Ca4 I24'
_cell_volume   1670.21323446
_cell_formula_units_Z   4
loop_
 _symmetry_equiv_pos_site_id
 _symmetry_equiv_pos_as_xyz
  1  'x, y, z'
loop_
 _atom_site_type_symbol
 _atom_site_label
 _atom_site_symmetry_multiplicity
 _atom_site_fract_x
 _atom_site_fract_y
 _atom_site_fract_z
 _atom_site_occupancy
  Sr  Sr0  1  0.26512200  0.35361400  0.83799300  1
  Sr  Sr1  1  0.76512200  0.64638600  0.83799300  1
  Sr  Sr2  1  0.76512200  0.14638600  0.66200700  1
  Sr  Sr3  1  0.26512200  0.85361400  0.66200700  1
  Sr  Sr4  1  0.73487800  0.14638600  0.33799300  1
  Sr  Sr5  1  0.23487800  0.85361400  0.33799300  1
  Sr  Sr6  1  0.23487800  0.35361400  0.16200700  1
  Sr  Sr7  1  0.73487800  0.64638600  0.16200700  1
  Ca  Ca8  1  0.75000000  0.13881000  0.00000000  1
  Ca  Ca9  1  0.25000000  0.86119000  0.00000000  1
  Ca  Ca10  1  0.25000000  0.36119000  0.50000000  1
  Ca  Ca11  1  0.75000000  0.63881000  0.50000000  1
  I  I12  1  0.93772200  0.90469300  0.91930100  1
  I  I13  1  0.43772200  0.09530700  0.91930100  1
  I  I14  1  0.92710800  0.38000100  0.92004100  1
  I  I15  1  0.42710800  0.61999900  0.92004100  1
  I  I16  1  0.60198200  0.38237900  0.75719000  1
  I  I17  1  0.10198200  0.61762100  0.75719000  1
  I  I18  1  0.10198200  0.11762100  0.74281000  1
  I  I19  1  0.60198200  0.88237900  0.74281000  1
  I  I20  1  0.42710800  0.11999900  0.57995900  1
  I  I21  1  0.92710800  0.88000100  0.57995900  1
  I  I22  1  0.93772200  0.40469300  0.58069900  1
  I  I23  1  0.43772200  0.59530700  0.58069900  1
  I  I24  1  0.56227800  0.40469300  0.41930100  1
  I  I25  1  0.06227800  0.59530700  0.41930100  1
  I  I26  1  0.07289200  0.11999900  0.42004100  1
  I  I27  1  0.57289200  0.88000100  0.42004100  1
  I  I28  1  0.39801800  0.11762100  0.25719000  1
  I  I29  1  0.89801800  0.88237900  0.25719000  1
  I  I30  1  0.89801800  0.38237900  0.24281000  1
  I  I31  1  0.39801800  0.61762100  0.24281000  1
  I  I32  1  0.57289200  0.38000100  0.07995900  1
  I  I33  1  0.07289200  0.61999900  0.07995900  1
  I  I34  1  0.06227800  0.09530700  0.08069900  1
  I  I35  1  0.56227800  0.90469300  0.08069900  1
