# generated using pymatgen
data_KSb(PSe3)2
_symmetry_space_group_name_H-M   'P 1'
_cell_length_a   7.04295000
_cell_length_b   8.20808100
_cell_length_c   10.35529926
_cell_angle_alpha   90.00000000
_cell_angle_beta   91.66751376
_cell_angle_gamma   90.00000000
_symmetry_Int_Tables_number   1
_chemical_formula_structural   KSb(PSe3)2
_chemical_formula_sum   'K2 Sb2 P4 Se12'
_cell_volume   598.37706474
_cell_formula_units_Z   2
loop_
 _symmetry_equiv_pos_site_id
 _symmetry_equiv_pos_as_xyz
  1  'x, y, z'
loop_
 _atom_site_type_symbol
 _atom_site_label
 _atom_site_symmetry_multiplicity
 _atom_site_fract_x
 _atom_site_fract_y
 _atom_site_fract_z
 _atom_site_occupancy
  K  K0  1  0.19277100  0.33703700  0.00828700  1
  K  K1  1  0.80722900  0.83703700  0.99171300  1
  Sb  Sb2  1  0.31355400  0.05285200  0.48562700  1
  Sb  Sb3  1  0.68644600  0.55285200  0.51437300  1
  P  P4  1  0.29169200  0.84762000  0.20172600  1
  P  P5  1  0.70830800  0.34762000  0.79827400  1
  P  P6  1  0.80729600  0.13912500  0.67046400  1
  P  P7  1  0.19270400  0.63912500  0.32953600  1
  Se  Se8  1  0.58491100  0.94463000  0.67152400  1
  Se  Se9  1  0.08140600  0.04058100  0.23370600  1
  Se  Se10  1  0.41508900  0.44463000  0.32847600  1
  Se  Se11  1  0.32360200  0.75942400  0.00846000  1
  Se  Se12  1  0.44367300  0.42253300  0.68783700  1
  Se  Se13  1  0.55632700  0.92253300  0.31216300  1
  Se  Se14  1  0.84055900  0.25759500  0.47379800  1
  Se  Se15  1  0.15944100  0.75759500  0.52620200  1
  Se  Se16  1  0.92212500  0.54680200  0.25039400  1
  Se  Se17  1  0.07787500  0.04680200  0.74960600  1
  Se  Se18  1  0.67639800  0.25942400  0.99154000  1
  Se  Se19  1  0.91859400  0.54058100  0.76629400  1
