# generated using pymatgen
data_Li10Mn3Cr2Ni3O16
_symmetry_space_group_name_H-M   'P 1'
_cell_length_a   10.34814000
_cell_length_b   5.93428800
_cell_length_c   9.78053432
_cell_angle_alpha   90.00000000
_cell_angle_beta   90.71348767
_cell_angle_gamma   90.00000000
_symmetry_Int_Tables_number   1
_chemical_formula_structural   Li10Mn3Cr2Ni3O16
_chemical_formula_sum   'Li20 Mn6 Cr4 Ni6 O32'
_cell_volume   600.56472920
_cell_formula_units_Z   2
loop_
 _symmetry_equiv_pos_site_id
 _symmetry_equiv_pos_as_xyz
  1  'x, y, z'
loop_
 _atom_site_type_symbol
 _atom_site_label
 _atom_site_symmetry_multiplicity
 _atom_site_fract_x
 _atom_site_fract_y
 _atom_site_fract_z
 _atom_site_occupancy
  Li  Li0  1  0.59615900  0.21818000  0.94329200  1
  Li  Li1  1  0.59615900  0.78182000  0.94329200  1
  Li  Li2  1  0.66469400  0.00000000  0.73337000  1
  Li  Li3  1  0.79821000  0.00000000  0.95917100  1
  Li  Li4  1  0.50206200  0.50000000  0.01940700  1
  Li  Li5  1  0.69949200  0.50000000  0.45164400  1
  Li  Li6  1  0.83518400  0.50000000  0.23355600  1
  Li  Li7  1  0.89709400  0.71012900  0.46032800  1
  Li  Li8  1  0.50952800  0.50000000  0.52110600  1
  Li  Li9  1  0.89709400  0.28987100  0.46032800  1
  Li  Li10  1  0.09615900  0.71818000  0.94329200  1
  Li  Li11  1  0.09615900  0.28182000  0.94329200  1
  Li  Li12  1  0.16469400  0.50000000  0.73337000  1
  Li  Li13  1  0.29821000  0.50000000  0.95917100  1
  Li  Li14  1  0.00206200  0.00000000  0.01940700  1
  Li  Li15  1  0.19949200  0.00000000  0.45164400  1
  Li  Li16  1  0.33518400  0.00000000  0.23355600  1
  Li  Li17  1  0.39709400  0.21012900  0.46032800  1
  Li  Li18  1  0.00952800  0.00000000  0.52110600  1
  Li  Li19  1  0.39709400  0.78987100  0.46032800  1
  Mn  Mn20  1  0.58604750  0.24609450  0.21961700  1
  Mn  Mn21  1  0.58604750  0.75390550  0.21961700  1
  Mn  Mn22  1  0.68008700  0.50000000  0.72002400  1
  Mn  Mn23  1  0.08604750  0.74609450  0.21961700  1
  Mn  Mn24  1  0.08604750  0.25390550  0.21961700  1
  Mn  Mn25  1  0.18008700  0.00000000  0.72002400  1
  Cr  Cr26  1  0.84105000  0.50000000  0.97468600  1
  Cr  Cr27  1  0.67565700  0.00000000  0.47799200  1
  Cr  Cr28  1  0.34105000  0.00000000  0.97468600  1
  Cr  Cr29  1  0.17565700  0.50000000  0.47799200  1
  Ni  Ni30  1  0.83405100  0.00000000  0.22137500  1
  Ni  Ni31  1  0.92315750  0.74946650  0.71991500  1
  Ni  Ni32  1  0.92315750  0.25053350  0.71991500  1
  Ni  Ni33  1  0.33405100  0.50000000  0.22137500  1
  Ni  Ni34  1  0.42315750  0.24946650  0.71991500  1
  Ni  Ni35  1  0.42315750  0.75053350  0.71991500  1
  O  O36  1  0.59983300  0.25864500  0.60237900  1
  O  O37  1  0.50816000  0.00000000  0.36128700  1
  O  O38  1  0.52066400  0.50000000  0.82826100  1
  O  O39  1  0.65911500  0.00000000  0.10868900  1
  O  O40  1  0.51394300  0.50000000  0.32449200  1
  O  O41  1  0.74350800  0.23625200  0.34529800  1
  O  O42  1  0.59983300  0.74135500  0.60237900  1
  O  O43  1  0.74350800  0.76374800  0.34529800  1
  O  O44  1  0.67432000  0.50000000  0.08847900  1
  O  O45  1  0.75716950  0.73147850  0.84316900  1
  O  O46  1  0.84417000  0.00000000  0.58497500  1
  O  O47  1  0.75716950  0.26852150  0.84316900  1
  O  O48  1  0.83127100  0.50000000  0.60508600  1
  O  O49  1  0.92134000  0.74992500  0.09624100  1
  O  O50  1  0.99551900  0.50000000  0.84757500  1
  O  O51  1  0.92134000  0.25007500  0.09624100  1
  O  O52  1  0.09983300  0.75864500  0.60237900  1
  O  O53  1  0.00816000  0.50000000  0.36128700  1
  O  O54  1  0.02066400  0.00000000  0.82826100  1
  O  O55  1  0.15911500  0.50000000  0.10868900  1
  O  O56  1  0.01394300  0.00000000  0.32449200  1
  O  O57  1  0.24350800  0.73625200  0.34529800  1
  O  O58  1  0.09983300  0.24135500  0.60237900  1
  O  O59  1  0.24350800  0.26374800  0.34529800  1
  O  O60  1  0.17432000  0.00000000  0.08847900  1
  O  O61  1  0.25716950  0.23147850  0.84316900  1
  O  O62  1  0.34417000  0.50000000  0.58497500  1
  O  O63  1  0.25716950  0.76852150  0.84316900  1
  O  O64  1  0.33127100  0.00000000  0.60508600  1
  O  O65  1  0.42134000  0.24992500  0.09624100  1
  O  O66  1  0.49551900  0.00000000  0.84757500  1
  O  O67  1  0.42134000  0.75007500  0.09624100  1
