# generated using pymatgen
data_Li2VO2F
_symmetry_space_group_name_H-M   'P 1'
_cell_length_a   7.37142500
_cell_length_b   3.03221600
_cell_length_c   10.33938368
_cell_angle_alpha   90.00000000
_cell_angle_beta   91.54846372
_cell_angle_gamma   90.00000000
_symmetry_Int_Tables_number   1
_chemical_formula_structural   Li2VO2F
_chemical_formula_sum   'Li8 V4 O8 F4'
_cell_volume   231.01895534
_cell_formula_units_Z   4
loop_
 _symmetry_equiv_pos_site_id
 _symmetry_equiv_pos_as_xyz
  1  'x, y, z'
loop_
 _atom_site_type_symbol
 _atom_site_label
 _atom_site_symmetry_multiplicity
 _atom_site_fract_x
 _atom_site_fract_y
 _atom_site_fract_z
 _atom_site_occupancy
  Li  Li0  1  0.12722700  0.50000000  0.67715400  1
  Li  Li1  1  0.15763100  0.50000000  0.17149900  1
  Li  Li2  1  0.84090800  0.50000000  0.33456400  1
  Li  Li3  1  0.87180100  0.50000000  0.81225400  1
  Li  Li4  1  0.15820800  0.00000000  0.42014800  1
  Li  Li5  1  0.11983600  0.00000000  0.91501200  1
  Li  Li6  1  0.84333500  0.00000000  0.08627200  1
  Li  Li7  1  0.86559600  0.00000000  0.59182500  1
  V  V8  1  0.50058100  0.50000000  0.00715300  1
  V  V9  1  0.50196700  0.50000000  0.49636800  1
  V  V10  1  0.49926300  0.00000000  0.25102900  1
  V  V11  1  0.51849300  0.00000000  0.74011000  1
  O  O12  1  0.65479400  0.50000000  0.66604100  1
  O  O13  1  0.65312200  0.50000000  0.16942800  1
  O  O14  1  0.34791600  0.50000000  0.33128200  1
  O  O15  1  0.65225400  0.00000000  0.41477500  1
  O  O16  1  0.62989300  0.00000000  0.91905000  1
  O  O17  1  0.34457100  0.00000000  0.08325400  1
  O  O18  1  0.35989800  0.00000000  0.58110600  1
  O  O19  1  0.00381200  0.00000000  0.75140900  1
  F  F20  1  0.34827600  0.50000000  0.82812700  1
  F  F21  1  0.99703900  0.50000000  0.01050300  1
  F  F22  1  0.00315800  0.50000000  0.49100800  1
  F  F23  1  0.00042100  0.00000000  0.25062700  1
