# generated using pymatgen
data_TaNbO5
_symmetry_space_group_name_H-M   'P 1'
_cell_length_a   5.77471200
_cell_length_b   7.25002700
_cell_length_c   12.47965700
_cell_angle_alpha   90.00000000
_cell_angle_beta   90.00000000
_cell_angle_gamma   90.00000000
_symmetry_Int_Tables_number   1
_chemical_formula_structural   TaNbO5
_chemical_formula_sum   'Ta4 Nb4 O20'
_cell_volume   522.48352729
_cell_formula_units_Z   4
loop_
 _symmetry_equiv_pos_site_id
 _symmetry_equiv_pos_as_xyz
  1  'x, y, z'
loop_
 _atom_site_type_symbol
 _atom_site_label
 _atom_site_symmetry_multiplicity
 _atom_site_fract_x
 _atom_site_fract_y
 _atom_site_fract_z
 _atom_site_occupancy
  Ta  Ta0  1  0.25000000  0.53117700  0.15428300  1
  Ta  Ta1  1  0.75000000  0.03117700  0.34571700  1
  Ta  Ta2  1  0.25000000  0.96882300  0.65428300  1
  Ta  Ta3  1  0.75000000  0.46882300  0.84571700  1
  Nb  Nb4  1  0.75000000  0.84995000  0.05650000  1
  Nb  Nb5  1  0.25000000  0.34995000  0.44350000  1
  Nb  Nb6  1  0.75000000  0.65005000  0.55650000  1
  Nb  Nb7  1  0.25000000  0.15005000  0.94350000  1
  O  O8  1  0.00000000  0.00000000  0.00000000  1
  O  O9  1  0.50000000  0.00000000  0.00000000  1
  O  O10  1  0.25000000  0.31276800  0.07455400  1
  O  O11  1  0.99107600  0.66812600  0.12025200  1
  O  O12  1  0.50892400  0.66812600  0.12025200  1
  O  O13  1  0.75000000  0.97776300  0.19816100  1
  O  O14  1  0.25000000  0.47776300  0.30183900  1
  O  O15  1  0.00892400  0.16812600  0.37974800  1
  O  O16  1  0.49107600  0.16812600  0.37974800  1
  O  O17  1  0.75000000  0.81276800  0.42544600  1
  O  O18  1  0.00000000  0.50000000  0.50000000  1
  O  O19  1  0.50000000  0.50000000  0.50000000  1
  O  O20  1  0.25000000  0.18723200  0.57455400  1
  O  O21  1  0.99107600  0.83187400  0.62025200  1
  O  O22  1  0.50892400  0.83187400  0.62025200  1
  O  O23  1  0.75000000  0.52223700  0.69816100  1
  O  O24  1  0.25000000  0.02223700  0.80183900  1
  O  O25  1  0.49107600  0.33187400  0.87974800  1
  O  O26  1  0.00892400  0.33187400  0.87974800  1
  O  O27  1  0.75000000  0.68723200  0.92544600  1
