# generated using pymatgen
data_BaYI5
_symmetry_space_group_name_H-M   'P 1'
_cell_length_a   6.45561000
_cell_length_b   21.94452000
_cell_length_c   7.81057903
_cell_angle_alpha   90.00000000
_cell_angle_beta   93.57910140
_cell_angle_gamma   90.00000000
_symmetry_Int_Tables_number   1
_chemical_formula_structural   BaYI5
_chemical_formula_sum   'Ba4 Y4 I20'
_cell_volume   1104.32959771
_cell_formula_units_Z   4
loop_
 _symmetry_equiv_pos_site_id
 _symmetry_equiv_pos_as_xyz
  1  'x, y, z'
loop_
 _atom_site_type_symbol
 _atom_site_label
 _atom_site_symmetry_multiplicity
 _atom_site_fract_x
 _atom_site_fract_y
 _atom_site_fract_z
 _atom_site_occupancy
  Ba  Ba0  1  0.50000000  0.17222700  0.75000000  1
  Ba  Ba1  1  0.00000000  0.32777300  0.25000000  1
  Ba  Ba2  1  0.00000000  0.67222700  0.75000000  1
  Ba  Ba3  1  0.50000000  0.82777300  0.25000000  1
  Y  Y4  1  0.50000000  0.42277300  0.75000000  1
  Y  Y5  1  0.00000000  0.07722700  0.25000000  1
  Y  Y6  1  0.00000000  0.92277300  0.75000000  1
  Y  Y7  1  0.50000000  0.57722700  0.25000000  1
  I  I8  1  0.24357000  0.03202300  0.59662900  1
  I  I9  1  0.74357000  0.46797700  0.09662900  1
  I  I10  1  0.00520200  0.18954000  0.99730800  1
  I  I11  1  0.00000000  0.36961400  0.75000000  1
  I  I12  1  0.99479800  0.18954000  0.50269200  1
  I  I13  1  0.50520200  0.31046000  0.49730800  1
  I  I14  1  0.50000000  0.13038600  0.25000000  1
  I  I15  1  0.49479800  0.31046000  0.00269200  1
  I  I16  1  0.75643000  0.03202300  0.90337100  1
  I  I17  1  0.25643000  0.46797700  0.40337100  1
  I  I18  1  0.74357000  0.53202300  0.59662900  1
  I  I19  1  0.24357000  0.96797700  0.09662900  1
  I  I20  1  0.50520200  0.68954000  0.99730800  1
  I  I21  1  0.50000000  0.86961400  0.75000000  1
  I  I22  1  0.49479800  0.68954000  0.50269200  1
  I  I23  1  0.00520200  0.81046000  0.49730800  1
  I  I24  1  0.00000000  0.63038600  0.25000000  1
  I  I25  1  0.99479800  0.81046000  0.00269200  1
  I  I26  1  0.25643000  0.53202300  0.90337100  1
  I  I27  1  0.75643000  0.96797700  0.40337100  1
