# generated using pymatgen
data_Al13Si5H18ClO38
_symmetry_space_group_name_H-M   'P 1'
_cell_length_a   14.07816200
_cell_length_b   14.07816200
_cell_length_c   14.07816200
_cell_angle_alpha   90.00000000
_cell_angle_beta   90.00000000
_cell_angle_gamma   90.00000000
_symmetry_Int_Tables_number   1
_chemical_formula_structural   Al13Si5H18ClO38
_chemical_formula_sum   'Al52 Si20 H72 Cl4 O152'
_cell_volume   2790.21632404
_cell_formula_units_Z   4
loop_
 _symmetry_equiv_pos_site_id
 _symmetry_equiv_pos_as_xyz
  1  'x, y, z'
loop_
 _atom_site_type_symbol
 _atom_site_label
 _atom_site_symmetry_multiplicity
 _atom_site_fract_x
 _atom_site_fract_y
 _atom_site_fract_z
 _atom_site_occupancy
  Al  Al0  1  0.73430000  0.41394100  0.91394100  1
  Al  Al1  1  0.91394100  0.41394100  0.73430000  1
  Al  Al2  1  0.91394100  0.23430000  0.91394100  1
  Al  Al3  1  0.08605900  0.23430000  0.08605900  1
  Al  Al4  1  0.08605900  0.41394100  0.26570000  1
  Al  Al5  1  0.23430000  0.08605900  0.08605900  1
  Al  Al6  1  0.25000000  0.25000000  0.25000000  1
  Al  Al7  1  0.26570000  0.41394100  0.08605900  1
  Al  Al8  1  0.41394100  0.26570000  0.08605900  1
  Al  Al9  1  0.41394100  0.08605900  0.26570000  1
  Al  Al10  1  0.58605900  0.08605900  0.73430000  1
  Al  Al11  1  0.58605900  0.26570000  0.91394100  1
  Al  Al12  1  0.76570000  0.08605900  0.91394100  1
  Al  Al13  1  0.73430000  0.91394100  0.41394100  1
  Al  Al14  1  0.91394100  0.91394100  0.23430000  1
  Al  Al15  1  0.91394100  0.73430000  0.41394100  1
  Al  Al16  1  0.08605900  0.73430000  0.58605900  1
  Al  Al17  1  0.08605900  0.91394100  0.76570000  1
  Al  Al18  1  0.23430000  0.58605900  0.58605900  1
  Al  Al19  1  0.25000000  0.75000000  0.75000000  1
  Al  Al20  1  0.26570000  0.91394100  0.58605900  1
  Al  Al21  1  0.41394100  0.76570000  0.58605900  1
  Al  Al22  1  0.41394100  0.58605900  0.76570000  1
  Al  Al23  1  0.58605900  0.58605900  0.23430000  1
  Al  Al24  1  0.58605900  0.76570000  0.41394100  1
  Al  Al25  1  0.76570000  0.58605900  0.41394100  1
  Al  Al26  1  0.23430000  0.41394100  0.41394100  1
  Al  Al27  1  0.41394100  0.41394100  0.23430000  1
  Al  Al28  1  0.41394100  0.23430000  0.41394100  1
  Al  Al29  1  0.58605900  0.23430000  0.58605900  1
  Al  Al30  1  0.58605900  0.41394100  0.76570000  1
  Al  Al31  1  0.73430000  0.08605900  0.58605900  1
  Al  Al32  1  0.75000000  0.25000000  0.75000000  1
  Al  Al33  1  0.76570000  0.41394100  0.58605900  1
  Al  Al34  1  0.91394100  0.26570000  0.58605900  1
  Al  Al35  1  0.91394100  0.08605900  0.76570000  1
  Al  Al36  1  0.08605900  0.08605900  0.23430000  1
  Al  Al37  1  0.08605900  0.26570000  0.41394100  1
  Al  Al38  1  0.26570000  0.08605900  0.41394100  1
  Al  Al39  1  0.23430000  0.91394100  0.91394100  1
  Al  Al40  1  0.41394100  0.91394100  0.73430000  1
  Al  Al41  1  0.41394100  0.73430000  0.91394100  1
  Al  Al42  1  0.58605900  0.73430000  0.08605900  1
  Al  Al43  1  0.58605900  0.91394100  0.26570000  1
  Al  Al44  1  0.73430000  0.58605900  0.08605900  1
  Al  Al45  1  0.75000000  0.75000000  0.25000000  1
  Al  Al46  1  0.76570000  0.91394100  0.08605900  1
  Al  Al47  1  0.91394100  0.76570000  0.08605900  1
  Al  Al48  1  0.91394100  0.58605900  0.26570000  1
  Al  Al49  1  0.08605900  0.58605900  0.73430000  1
  Al  Al50  1  0.08605900  0.76570000  0.91394100  1
  Al  Al51  1  0.26570000  0.58605900  0.91394100  1
  Si  Si52  1  0.11329500  0.38670500  0.61329500  1
  Si  Si53  1  0.11329500  0.11329500  0.88670500  1
  Si  Si54  1  0.25000000  0.25000000  0.75000000  1
  Si  Si55  1  0.38670500  0.38670500  0.88670500  1
  Si  Si56  1  0.38670500  0.11329500  0.61329500  1
  Si  Si57  1  0.11329500  0.88670500  0.11329500  1
  Si  Si58  1  0.11329500  0.61329500  0.38670500  1
  Si  Si59  1  0.25000000  0.75000000  0.25000000  1
  Si  Si60  1  0.38670500  0.88670500  0.38670500  1
  Si  Si61  1  0.38670500  0.61329500  0.11329500  1
  Si  Si62  1  0.61329500  0.38670500  0.11329500  1
  Si  Si63  1  0.61329500  0.11329500  0.38670500  1
  Si  Si64  1  0.75000000  0.25000000  0.25000000  1
  Si  Si65  1  0.88670500  0.38670500  0.38670500  1
  Si  Si66  1  0.88670500  0.11329500  0.11329500  1
  Si  Si67  1  0.61329500  0.88670500  0.61329500  1
  Si  Si68  1  0.61329500  0.61329500  0.88670500  1
  Si  Si69  1  0.75000000  0.75000000  0.75000000  1
  Si  Si70  1  0.88670500  0.88670500  0.88670500  1
  Si  Si71  1  0.88670500  0.61329500  0.61329500  1
  H  H72  1  0.30521500  0.01981600  0.80521500  1
  H  H73  1  0.80521500  0.30521500  0.01981600  1
  H  H74  1  0.34813100  0.00000000  0.00000000  1
  H  H75  1  0.01981600  0.30521500  0.80521500  1
  H  H76  1  0.50000000  0.00000000  0.15186900  1
  H  H77  1  0.50000000  0.00000000  0.84813100  1
  H  H78  1  0.00000000  0.34813100  0.00000000  1
  H  H79  1  0.98018400  0.30521500  0.19478500  1
  H  H80  1  0.65186900  0.00000000  0.00000000  1
  H  H81  1  0.69478500  0.01981600  0.19478500  1
  H  H82  1  0.19478500  0.30521500  0.98018400  1
  H  H83  1  0.30521500  0.19478500  0.98018400  1
  H  H84  1  0.80521500  0.48018400  0.19478500  1
  H  H85  1  0.51981600  0.19478500  0.19478500  1
  H  H86  1  0.50000000  0.15186900  0.00000000  1
  H  H87  1  0.48018400  0.19478500  0.80521500  1
  H  H88  1  0.19478500  0.48018400  0.80521500  1
  H  H89  1  0.69478500  0.19478500  0.01981600  1
  H  H90  1  0.30521500  0.51981600  0.30521500  1
  H  H91  1  0.80521500  0.80521500  0.51981600  1
  H  H92  1  0.34813100  0.50000000  0.50000000  1
  H  H93  1  0.01981600  0.80521500  0.30521500  1
  H  H94  1  0.50000000  0.50000000  0.65186900  1
  H  H95  1  0.50000000  0.50000000  0.34813100  1
  H  H96  1  0.00000000  0.84813100  0.50000000  1
  H  H97  1  0.98018400  0.80521500  0.69478500  1
  H  H98  1  0.65186900  0.50000000  0.50000000  1
  H  H99  1  0.69478500  0.51981600  0.69478500  1
  H  H100  1  0.19478500  0.80521500  0.48018400  1
  H  H101  1  0.30521500  0.69478500  0.48018400  1
  H  H102  1  0.80521500  0.98018400  0.69478500  1
  H  H103  1  0.51981600  0.69478500  0.69478500  1
  H  H104  1  0.50000000  0.65186900  0.50000000  1
  H  H105  1  0.48018400  0.69478500  0.30521500  1
  H  H106  1  0.19478500  0.98018400  0.30521500  1
  H  H107  1  0.69478500  0.69478500  0.51981600  1
  H  H108  1  0.80521500  0.01981600  0.30521500  1
  H  H109  1  0.30521500  0.30521500  0.51981600  1
  H  H110  1  0.84813100  0.00000000  0.50000000  1
  H  H111  1  0.51981600  0.30521500  0.30521500  1
  H  H112  1  0.00000000  0.00000000  0.65186900  1
  H  H113  1  0.00000000  0.00000000  0.34813100  1
  H  H114  1  0.50000000  0.34813100  0.50000000  1
  H  H115  1  0.48018400  0.30521500  0.69478500  1
  H  H116  1  0.15186900  0.00000000  0.50000000  1
  H  H117  1  0.19478500  0.01981600  0.69478500  1
  H  H118  1  0.69478500  0.30521500  0.48018400  1
  H  H119  1  0.80521500  0.19478500  0.48018400  1
  H  H120  1  0.30521500  0.48018400  0.69478500  1
  H  H121  1  0.01981600  0.19478500  0.69478500  1
  H  H122  1  0.00000000  0.15186900  0.50000000  1
  H  H123  1  0.98018400  0.19478500  0.30521500  1
  H  H124  1  0.69478500  0.48018400  0.30521500  1
  H  H125  1  0.19478500  0.19478500  0.51981600  1
  H  H126  1  0.80521500  0.51981600  0.80521500  1
  H  H127  1  0.30521500  0.80521500  0.01981600  1
  H  H128  1  0.84813100  0.50000000  0.00000000  1
  H  H129  1  0.51981600  0.80521500  0.80521500  1
  H  H130  1  0.00000000  0.50000000  0.15186900  1
  H  H131  1  0.00000000  0.50000000  0.84813100  1
  H  H132  1  0.50000000  0.84813100  0.00000000  1
  H  H133  1  0.48018400  0.80521500  0.19478500  1
  H  H134  1  0.15186900  0.50000000  0.00000000  1
  H  H135  1  0.19478500  0.51981600  0.19478500  1
  H  H136  1  0.69478500  0.80521500  0.98018400  1
  H  H137  1  0.80521500  0.69478500  0.98018400  1
  H  H138  1  0.30521500  0.98018400  0.19478500  1
  H  H139  1  0.01981600  0.69478500  0.19478500  1
  H  H140  1  0.00000000  0.65186900  0.00000000  1
  H  H141  1  0.98018400  0.69478500  0.80521500  1
  H  H142  1  0.69478500  0.98018400  0.80521500  1
  H  H143  1  0.19478500  0.69478500  0.01981600  1
  Cl  Cl144  1  0.50000000  0.00000000  0.00000000  1
  Cl  Cl145  1  0.50000000  0.50000000  0.50000000  1
  Cl  Cl146  1  0.00000000  0.00000000  0.50000000  1
  Cl  Cl147  1  0.00000000  0.50000000  0.00000000  1
  O  O148  1  0.27777900  0.00000000  0.00000000  1
  O  O149  1  0.82215550  0.45522700  0.82215550  1
  O  O150  1  0.82215550  0.32215550  0.95522700  1
  O  O151  1  0.95522700  0.32215550  0.82215550  1
  O  O152  1  0.50000000  0.00000000  0.77777900  1
  O  O153  1  0.00000000  0.27777900  0.00000000  1
  O  O154  1  0.50000000  0.00000000  0.22222100  1
  O  O155  1  0.00199300  0.36135550  0.63864450  1
  O  O156  1  0.00199300  0.13864450  0.86135550  1
  O  O157  1  0.04477300  0.32215550  0.17784450  1
  O  O158  1  0.13864450  0.49800700  0.63864450  1
  O  O159  1  0.13864450  0.36135550  0.50199300  1
  O  O160  1  0.13864450  0.13864450  0.99800700  1
  O  O161  1  0.13864450  0.00199300  0.86135550  1
  O  O162  1  0.17526833  0.17526833  0.17526833  1
  O  O163  1  0.17526833  0.32473167  0.32473167  1
  O  O164  1  0.17784450  0.45522700  0.17784450  1
  O  O165  1  0.17784450  0.32215550  0.04477300  1
  O  O166  1  0.18268100  0.31731900  0.68268100  1
  O  O167  1  0.18268100  0.18268100  0.81731900  1
  O  O168  1  0.72222100  0.00000000  0.00000000  1
  O  O169  1  0.31731900  0.18268100  0.68268100  1
  O  O170  1  0.31731900  0.31731900  0.81731900  1
  O  O171  1  0.32215550  0.17784450  0.04477300  1
  O  O172  1  0.32215550  0.04477300  0.17784450  1
  O  O173  1  0.32473167  0.32473167  0.17526833  1
  O  O174  1  0.32473167  0.17526833  0.32473167  1
  O  O175  1  0.36135550  0.00199300  0.63864450  1
  O  O176  1  0.36135550  0.49800700  0.86135550  1
  O  O177  1  0.36135550  0.36135550  0.99800700  1
  O  O178  1  0.36135550  0.13864450  0.50199300  1
  O  O179  1  0.45522700  0.17784450  0.17784450  1
  O  O180  1  0.49800700  0.36135550  0.86135550  1
  O  O181  1  0.49800700  0.13864450  0.63864450  1
  O  O182  1  0.50000000  0.22222100  0.00000000  1
  O  O183  1  0.54477300  0.17784450  0.82215550  1
  O  O184  1  0.67784450  0.04477300  0.82215550  1
  O  O185  1  0.67784450  0.17784450  0.95522700  1
  O  O186  1  0.27777900  0.50000000  0.50000000  1
  O  O187  1  0.82215550  0.95522700  0.32215550  1
  O  O188  1  0.82215550  0.82215550  0.45522700  1
  O  O189  1  0.95522700  0.82215550  0.32215550  1
  O  O190  1  0.50000000  0.50000000  0.27777900  1
  O  O191  1  0.00000000  0.77777900  0.50000000  1
  O  O192  1  0.50000000  0.50000000  0.72222100  1
  O  O193  1  0.00199300  0.86135550  0.13864450  1
  O  O194  1  0.00199300  0.63864450  0.36135550  1
  O  O195  1  0.04477300  0.82215550  0.67784450  1
  O  O196  1  0.13864450  0.99800700  0.13864450  1
  O  O197  1  0.13864450  0.86135550  0.00199300  1
  O  O198  1  0.13864450  0.63864450  0.49800700  1
  O  O199  1  0.13864450  0.50199300  0.36135550  1
  O  O200  1  0.17526833  0.67526833  0.67526833  1
  O  O201  1  0.17526833  0.82473167  0.82473167  1
  O  O202  1  0.17784450  0.95522700  0.67784450  1
  O  O203  1  0.17784450  0.82215550  0.54477300  1
  O  O204  1  0.18268100  0.81731900  0.18268100  1
  O  O205  1  0.18268100  0.68268100  0.31731900  1
  O  O206  1  0.72222100  0.50000000  0.50000000  1
  O  O207  1  0.31731900  0.68268100  0.18268100  1
  O  O208  1  0.31731900  0.81731900  0.31731900  1
  O  O209  1  0.32215550  0.67784450  0.54477300  1
  O  O210  1  0.32215550  0.54477300  0.67784450  1
  O  O211  1  0.32473167  0.82473167  0.67526833  1
  O  O212  1  0.32473167  0.67526833  0.82473167  1
  O  O213  1  0.36135550  0.50199300  0.13864450  1
  O  O214  1  0.36135550  0.99800700  0.36135550  1
  O  O215  1  0.36135550  0.86135550  0.49800700  1
  O  O216  1  0.36135550  0.63864450  0.00199300  1
  O  O217  1  0.45522700  0.67784450  0.67784450  1
  O  O218  1  0.49800700  0.86135550  0.36135550  1
  O  O219  1  0.49800700  0.63864450  0.13864450  1
  O  O220  1  0.50000000  0.72222100  0.50000000  1
  O  O221  1  0.54477300  0.67784450  0.32215550  1
  O  O222  1  0.67784450  0.54477300  0.32215550  1
  O  O223  1  0.67784450  0.67784450  0.45522700  1
  O  O224  1  0.77777900  0.00000000  0.50000000  1
  O  O225  1  0.32215550  0.45522700  0.32215550  1
  O  O226  1  0.32215550  0.32215550  0.45522700  1
  O  O227  1  0.45522700  0.32215550  0.32215550  1
  O  O228  1  0.00000000  0.00000000  0.27777900  1
  O  O229  1  0.50000000  0.27777900  0.50000000  1
  O  O230  1  0.00000000  0.00000000  0.72222100  1
  O  O231  1  0.50199300  0.36135550  0.13864450  1
  O  O232  1  0.50199300  0.13864450  0.36135550  1
  O  O233  1  0.54477300  0.32215550  0.67784450  1
  O  O234  1  0.63864450  0.49800700  0.13864450  1
  O  O235  1  0.63864450  0.36135550  0.00199300  1
  O  O236  1  0.63864450  0.13864450  0.49800700  1
  O  O237  1  0.63864450  0.00199300  0.36135550  1
  O  O238  1  0.67526833  0.17526833  0.67526833  1
  O  O239  1  0.67526833  0.32473167  0.82473167  1
  O  O240  1  0.67784450  0.45522700  0.67784450  1
  O  O241  1  0.67784450  0.32215550  0.54477300  1
  O  O242  1  0.68268100  0.31731900  0.18268100  1
  O  O243  1  0.68268100  0.18268100  0.31731900  1
  O  O244  1  0.22222100  0.00000000  0.50000000  1
  O  O245  1  0.81731900  0.18268100  0.18268100  1
  O  O246  1  0.81731900  0.31731900  0.31731900  1
  O  O247  1  0.82215550  0.17784450  0.54477300  1
  O  O248  1  0.82215550  0.04477300  0.67784450  1
  O  O249  1  0.82473167  0.32473167  0.67526833  1
  O  O250  1  0.82473167  0.17526833  0.82473167  1
  O  O251  1  0.86135550  0.00199300  0.13864450  1
  O  O252  1  0.86135550  0.49800700  0.36135550  1
  O  O253  1  0.86135550  0.36135550  0.49800700  1
  O  O254  1  0.86135550  0.13864450  0.00199300  1
  O  O255  1  0.95522700  0.17784450  0.67784450  1
  O  O256  1  0.99800700  0.36135550  0.36135550  1
  O  O257  1  0.99800700  0.13864450  0.13864450  1
  O  O258  1  0.00000000  0.22222100  0.50000000  1
  O  O259  1  0.04477300  0.17784450  0.32215550  1
  O  O260  1  0.17784450  0.04477300  0.32215550  1
  O  O261  1  0.17784450  0.17784450  0.45522700  1
  O  O262  1  0.77777900  0.50000000  0.00000000  1
  O  O263  1  0.32215550  0.95522700  0.82215550  1
  O  O264  1  0.32215550  0.82215550  0.95522700  1
  O  O265  1  0.45522700  0.82215550  0.82215550  1
  O  O266  1  0.00000000  0.50000000  0.77777900  1
  O  O267  1  0.50000000  0.77777900  0.00000000  1
  O  O268  1  0.00000000  0.50000000  0.22222100  1
  O  O269  1  0.50199300  0.86135550  0.63864450  1
  O  O270  1  0.50199300  0.63864450  0.86135550  1
  O  O271  1  0.54477300  0.82215550  0.17784450  1
  O  O272  1  0.63864450  0.99800700  0.63864450  1
  O  O273  1  0.63864450  0.86135550  0.50199300  1
  O  O274  1  0.63864450  0.63864450  0.99800700  1
  O  O275  1  0.63864450  0.50199300  0.86135550  1
  O  O276  1  0.67526833  0.67526833  0.17526833  1
  O  O277  1  0.67526833  0.82473167  0.32473167  1
  O  O278  1  0.67784450  0.95522700  0.17784450  1
  O  O279  1  0.67784450  0.82215550  0.04477300  1
  O  O280  1  0.68268100  0.81731900  0.68268100  1
  O  O281  1  0.68268100  0.68268100  0.81731900  1
  O  O282  1  0.22222100  0.50000000  0.00000000  1
  O  O283  1  0.81731900  0.68268100  0.68268100  1
  O  O284  1  0.81731900  0.81731900  0.81731900  1
  O  O285  1  0.82215550  0.67784450  0.04477300  1
  O  O286  1  0.82215550  0.54477300  0.17784450  1
  O  O287  1  0.82473167  0.82473167  0.17526833  1
  O  O288  1  0.82473167  0.67526833  0.32473167  1
  O  O289  1  0.86135550  0.50199300  0.63864450  1
  O  O290  1  0.86135550  0.99800700  0.86135550  1
  O  O291  1  0.86135550  0.86135550  0.99800700  1
  O  O292  1  0.86135550  0.63864450  0.50199300  1
  O  O293  1  0.95522700  0.67784450  0.17784450  1
  O  O294  1  0.99800700  0.86135550  0.86135550  1
  O  O295  1  0.99800700  0.63864450  0.63864450  1
  O  O296  1  0.00000000  0.72222100  0.00000000  1
  O  O297  1  0.04477300  0.67784450  0.82215550  1
  O  O298  1  0.17784450  0.54477300  0.82215550  1
  O  O299  1  0.17784450  0.67784450  0.95522700  1
