# generated using pymatgen
data_Li2Ti3CoO8
_symmetry_space_group_name_H-M   'P 1'
_cell_length_a   5.97861939
_cell_length_b   5.97861939
_cell_length_c   14.55738580
_cell_angle_alpha   90.00000000
_cell_angle_beta   90.00000000
_cell_angle_gamma   120.00000000
_symmetry_Int_Tables_number   1
_chemical_formula_structural   Li2Ti3CoO8
_chemical_formula_sum   'Li6 Ti9 Co3 O24'
_cell_volume   450.62557561
_cell_formula_units_Z   3
loop_
 _symmetry_equiv_pos_site_id
 _symmetry_equiv_pos_as_xyz
  1  'x, y, z'
loop_
 _atom_site_type_symbol
 _atom_site_label
 _atom_site_symmetry_multiplicity
 _atom_site_fract_x
 _atom_site_fract_y
 _atom_site_fract_z
 _atom_site_occupancy
  Li  Li0  1  0.33333333  0.66666667  0.54773600  1
  Li  Li1  1  0.33333333  0.66666667  0.16609633  1
  Li  Li2  1  0.00000000  0.00000000  0.88106933  1
  Li  Li3  1  0.00000000  0.00000000  0.49942967  1
  Li  Li4  1  0.66666667  0.33333333  0.21440267  1
  Li  Li5  1  0.66666667  0.33333333  0.83276300  1
  Ti  Ti6  1  0.66082408  0.83041204  0.33212692  1
  Ti  Ti7  1  0.16958796  0.83041204  0.33212692  1
  Ti  Ti8  1  0.16958796  0.33917592  0.33212692  1
  Ti  Ti9  1  0.32749075  0.16374537  0.66546025  1
  Ti  Ti10  1  0.83625462  0.16374537  0.66546025  1
  Ti  Ti11  1  0.83625463  0.67250925  0.66546025  1
  Ti  Ti12  1  0.99415742  0.49707871  0.99879358  1
  Ti  Ti13  1  0.50292129  0.49707871  0.99879358  1
  Ti  Ti14  1  0.50292129  0.00584258  0.99879358  1
  Co  Co15  1  0.33333333  0.66666667  0.78397592  1
  Co  Co16  1  0.00000000  0.00000000  0.11730925  1
  Co  Co17  1  0.66666667  0.33333333  0.45064258  1
  O  O18  1  0.33333333  0.66666667  0.40735750  1
  O  O19  1  0.33333333  0.66666667  0.92446692  1
  O  O20  1  0.48595417  0.97190833  0.26319283  1
  O  O21  1  0.48595417  0.51404583  0.26319283  1
  O  O22  1  0.02809167  0.51404583  0.26319283  1
  O  O23  1  0.64000267  0.82000133  0.07305858  1
  O  O24  1  0.17999867  0.82000133  0.07305858  1
  O  O25  1  0.17999867  0.35999733  0.07305858  1
  O  O26  1  0.00000000  0.00000000  0.74069083  1
  O  O27  1  0.00000000  0.00000000  0.25780025  1
  O  O28  1  0.15262083  0.30524167  0.59652617  1
  O  O29  1  0.15262083  0.84737917  0.59652617  1
  O  O30  1  0.69475833  0.84737917  0.59652617  1
  O  O31  1  0.30666933  0.15333467  0.40639192  1
  O  O32  1  0.84666533  0.15333467  0.40639192  1
  O  O33  1  0.84666533  0.69333067  0.40639192  1
  O  O34  1  0.66666667  0.33333333  0.07402417  1
  O  O35  1  0.66666667  0.33333333  0.59113358  1
  O  O36  1  0.81928750  0.63857500  0.92985950  1
  O  O37  1  0.81928750  0.18071250  0.92985950  1
  O  O38  1  0.36142500  0.18071250  0.92985950  1
  O  O39  1  0.97333600  0.48666800  0.73972525  1
  O  O40  1  0.51333200  0.48666800  0.73972525  1
  O  O41  1  0.51333200  0.02666400  0.73972525  1
