# generated using pymatgen
data_Li3MnV(PO4)3
_symmetry_space_group_name_H-M   'P 1'
_cell_length_a   11.66877000
_cell_length_b   12.77744200
_cell_length_c   6.33491501
_cell_angle_alpha   90.00000000
_cell_angle_beta   113.96644144
_cell_angle_gamma   90.00000000
_symmetry_Int_Tables_number   1
_chemical_formula_structural   Li3MnV(PO4)3
_chemical_formula_sum   'Li12 Mn4 V4 P12 O48'
_cell_volume   863.08410146
_cell_formula_units_Z   4
loop_
 _symmetry_equiv_pos_site_id
 _symmetry_equiv_pos_as_xyz
  1  'x, y, z'
loop_
 _atom_site_type_symbol
 _atom_site_label
 _atom_site_symmetry_multiplicity
 _atom_site_fract_x
 _atom_site_fract_y
 _atom_site_fract_z
 _atom_site_occupancy
  Li  Li0  1  0.50000000  0.50169000  0.50000000  1
  Li  Li1  1  0.50000000  0.78933200  0.00000000  1
  Li  Li2  1  0.49872850  0.00074650  0.24702000  1
  Li  Li3  1  0.50127150  0.00074650  0.75298000  1
  Li  Li4  1  0.50000000  0.21103900  0.50000000  1
  Li  Li5  1  0.50000000  0.49608500  0.00000000  1
  Li  Li6  1  0.00000000  0.00169000  0.50000000  1
  Li  Li7  1  0.00000000  0.28933200  0.00000000  1
  Li  Li8  1  0.99872850  0.50074650  0.24702000  1
  Li  Li9  1  0.00127150  0.50074650  0.75298000  1
  Li  Li10  1  0.00000000  0.71103900  0.50000000  1
  Li  Li11  1  0.00000000  0.99608500  0.00000000  1
  Mn  Mn12  1  0.21620100  0.15849400  0.88006100  1
  Mn  Mn13  1  0.78379900  0.15849400  0.11993900  1
  Mn  Mn14  1  0.71620100  0.65849400  0.88006100  1
  Mn  Mn15  1  0.28379900  0.65849400  0.11993900  1
  V  V16  1  0.21735100  0.83964300  0.39158600  1
  V  V17  1  0.78264900  0.83964300  0.60841400  1
  V  V18  1  0.71735100  0.33964300  0.39158600  1
  V  V19  1  0.28264900  0.33964300  0.60841400  1
  P  P20  1  0.50000000  0.78700300  0.50000000  1
  P  P21  1  0.23451950  0.89983550  0.88609700  1
  P  P22  1  0.23888200  0.10029100  0.38554600  1
  P  P23  1  0.76548050  0.89983550  0.11390300  1
  P  P24  1  0.76111800  0.10029100  0.61445400  1
  P  P25  1  0.50000000  0.21388700  0.00000000  1
  P  P26  1  0.00000000  0.28700300  0.50000000  1
  P  P27  1  0.73451950  0.39983550  0.88609700  1
  P  P28  1  0.73888200  0.60029100  0.38554600  1
  P  P29  1  0.26548050  0.39983550  0.11390300  1
  P  P30  1  0.26111800  0.60029100  0.61445400  1
  P  P31  1  0.00000000  0.71388700  0.00000000  1
  O  O32  1  0.17735300  0.83300900  0.66099900  1
  O  O33  1  0.22122750  0.83113650  0.07976400  1
  O  O34  1  0.54558300  0.71753100  0.72189100  1
  O  O35  1  0.45441700  0.71753100  0.27810900  1
  O  O36  1  0.15773450  0.99969150  0.36210600  1
  O  O37  1  0.40120700  0.86222500  0.52277400  1
  O  O38  1  0.14756900  0.99789900  0.84396400  1
  O  O39  1  0.37348450  0.92218050  0.95476500  1
  O  O40  1  0.22421800  0.17651100  0.57291300  1
  O  O41  1  0.17571950  0.16074350  0.15312000  1
  O  O42  1  0.59879300  0.86222500  0.47722600  1
  O  O43  1  0.37792300  0.07946800  0.45741400  1
  O  O44  1  0.62651550  0.92218050  0.04523500  1
  O  O45  1  0.39922950  0.13774850  0.01742400  1
  O  O46  1  0.82264700  0.83300900  0.33900100  1
  O  O47  1  0.77877250  0.83113650  0.92023600  1
  O  O48  1  0.62207700  0.07946800  0.54258600  1
  O  O49  1  0.84226550  0.99969150  0.63789400  1
  O  O50  1  0.60077050  0.13774850  0.98257600  1
  O  O51  1  0.85243100  0.99789900  0.15603600  1
  O  O52  1  0.54265400  0.28332800  0.21911900  1
  O  O53  1  0.45734600  0.28332800  0.78088100  1
  O  O54  1  0.77578200  0.17651100  0.42708700  1
  O  O55  1  0.82428050  0.16074350  0.84688000  1
  O  O56  1  0.67735300  0.33300900  0.66099900  1
  O  O57  1  0.72122750  0.33113650  0.07976400  1
  O  O58  1  0.04558300  0.21753100  0.72189100  1
  O  O59  1  0.95441700  0.21753100  0.27810900  1
  O  O60  1  0.65773450  0.49969150  0.36210600  1
  O  O61  1  0.90120700  0.36222500  0.52277400  1
  O  O62  1  0.64756900  0.49789900  0.84396400  1
  O  O63  1  0.87348450  0.42218050  0.95476500  1
  O  O64  1  0.72421800  0.67651100  0.57291300  1
  O  O65  1  0.67571950  0.66074350  0.15312000  1
  O  O66  1  0.09879300  0.36222500  0.47722600  1
  O  O67  1  0.87792300  0.57946800  0.45741400  1
  O  O68  1  0.12651550  0.42218050  0.04523500  1
  O  O69  1  0.89922950  0.63774850  0.01742400  1
  O  O70  1  0.32264700  0.33300900  0.33900100  1
  O  O71  1  0.27877250  0.33113650  0.92023600  1
  O  O72  1  0.12207700  0.57946800  0.54258600  1
  O  O73  1  0.34226550  0.49969150  0.63789400  1
  O  O74  1  0.10077050  0.63774850  0.98257600  1
  O  O75  1  0.35243100  0.49789900  0.15603600  1
  O  O76  1  0.04265400  0.78332800  0.21911900  1
  O  O77  1  0.95734600  0.78332800  0.78088100  1
  O  O78  1  0.27578200  0.67651100  0.42708700  1
  O  O79  1  0.32428050  0.66074350  0.84688000  1
