# generated using pymatgen
data_LiFe2(PO4)2
_symmetry_space_group_name_H-M   'P 1'
_cell_length_a   8.17556200
_cell_length_b   5.42646600
_cell_length_c   6.36554474
_cell_angle_alpha   90.00000000
_cell_angle_beta   90.84712575
_cell_angle_gamma   90.00000000
_symmetry_Int_Tables_number   1
_chemical_formula_structural   LiFe2(PO4)2
_chemical_formula_sum   'Li2 Fe4 P4 O16'
_cell_volume   282.37276568
_cell_formula_units_Z   2
loop_
 _symmetry_equiv_pos_site_id
 _symmetry_equiv_pos_as_xyz
  1  'x, y, z'
loop_
 _atom_site_type_symbol
 _atom_site_label
 _atom_site_symmetry_multiplicity
 _atom_site_fract_x
 _atom_site_fract_y
 _atom_site_fract_z
 _atom_site_occupancy
  Li  Li0  1  0.67450400  0.00000000  0.73990200  1
  Li  Li1  1  0.17450400  0.50000000  0.73990200  1
  Fe  Fe2  1  0.00857700  0.00000000  0.00545400  1
  Fe  Fe3  1  0.00628500  0.00000000  0.48581500  1
  Fe  Fe4  1  0.50857700  0.50000000  0.00545400  1
  Fe  Fe5  1  0.50628500  0.50000000  0.48581500  1
  P  P6  1  0.65518700  0.00000000  0.23719500  1
  P  P7  1  0.34912200  0.00000000  0.74740300  1
  P  P8  1  0.15518700  0.50000000  0.23719500  1
  P  P9  1  0.84912200  0.50000000  0.74740300  1
  O  O10  1  0.76628500  0.00000000  0.04114700  1
  O  O11  1  0.54382050  0.76375350  0.22843200  1
  O  O12  1  0.54382050  0.23624650  0.22843200  1
  O  O13  1  0.75367100  0.00000000  0.44386600  1
  O  O14  1  0.25106800  0.00000000  0.54466200  1
  O  O15  1  0.46797200  0.76797700  0.75800100  1
  O  O16  1  0.46797200  0.23202300  0.75800100  1
  O  O17  1  0.23920400  0.00000000  0.94040600  1
  O  O18  1  0.26628500  0.50000000  0.04114700  1
  O  O19  1  0.04382050  0.26375350  0.22843200  1
  O  O20  1  0.04382050  0.73624650  0.22843200  1
  O  O21  1  0.25367100  0.50000000  0.44386600  1
  O  O22  1  0.75106800  0.50000000  0.54466200  1
  O  O23  1  0.96797200  0.26797700  0.75800100  1
  O  O24  1  0.96797200  0.73202300  0.75800100  1
  O  O25  1  0.73920400  0.50000000  0.94040600  1
