# generated using pymatgen
data_LiFeF3
_symmetry_space_group_name_H-M   'P 1'
_cell_length_a   5.83756597
_cell_length_b   5.83756597
_cell_length_c   35.48378710
_cell_angle_alpha   90.00000000
_cell_angle_beta   90.00000000
_cell_angle_gamma   120.00000000
_symmetry_Int_Tables_number   1
_chemical_formula_structural   LiFeF3
_chemical_formula_sum   'Li18 Fe18 F54'
_cell_volume   1047.18689567
_cell_formula_units_Z   18
loop_
 _symmetry_equiv_pos_site_id
 _symmetry_equiv_pos_as_xyz
  1  'x, y, z'
loop_
 _atom_site_type_symbol
 _atom_site_label
 _atom_site_symmetry_multiplicity
 _atom_site_fract_x
 _atom_site_fract_y
 _atom_site_fract_z
 _atom_site_occupancy
  Li  Li0  1  0.98384367  0.33333333  0.08333333  1
  Li  Li1  1  0.66666667  0.65051033  0.08333333  1
  Li  Li2  1  0.31717700  0.31717700  0.25000000  1
  Li  Li3  1  0.34948967  0.01615633  0.08333333  1
  Li  Li4  1  0.00000000  0.68282300  0.25000000  1
  Li  Li5  1  0.68282300  0.00000000  0.25000000  1
  Li  Li6  1  0.65051033  0.66666667  0.41666667  1
  Li  Li7  1  0.33333333  0.98384367  0.41666667  1
  Li  Li8  1  0.98384367  0.65051033  0.58333333  1
  Li  Li9  1  0.01615633  0.34948967  0.41666667  1
  Li  Li10  1  0.66666667  0.01615633  0.58333333  1
  Li  Li11  1  0.34948967  0.33333333  0.58333333  1
  Li  Li12  1  0.31717700  0.00000000  0.75000000  1
  Li  Li13  1  0.00000000  0.31717700  0.75000000  1
  Li  Li14  1  0.65051033  0.98384367  0.91666667  1
  Li  Li15  1  0.68282300  0.68282300  0.75000000  1
  Li  Li16  1  0.33333333  0.34948967  0.91666667  1
  Li  Li17  1  0.01615633  0.66666667  0.91666667  1
  Fe  Fe18  1  0.00000000  0.00000000  0.00000000  1
  Fe  Fe19  1  0.33333333  0.66666667  0.32212567  1
  Fe  Fe20  1  0.66666667  0.33333333  0.17787433  1
  Fe  Fe21  1  0.00000000  0.00000000  0.15545900  1
  Fe  Fe22  1  0.33333333  0.66666667  0.01120767  1
  Fe  Fe23  1  0.33333333  0.66666667  0.16666667  1
  Fe  Fe24  1  0.66666667  0.33333333  0.33333333  1
  Fe  Fe25  1  0.00000000  0.00000000  0.65545900  1
  Fe  Fe26  1  0.33333333  0.66666667  0.51120767  1
  Fe  Fe27  1  0.66666667  0.33333333  0.48879233  1
  Fe  Fe28  1  0.00000000  0.00000000  0.34454100  1
  Fe  Fe29  1  0.00000000  0.00000000  0.50000000  1
  Fe  Fe30  1  0.33333333  0.66666667  0.66666667  1
  Fe  Fe31  1  0.66666667  0.33333333  0.98879233  1
  Fe  Fe32  1  0.00000000  0.00000000  0.84454100  1
  Fe  Fe33  1  0.33333333  0.66666667  0.82212567  1
  Fe  Fe34  1  0.66666667  0.33333333  0.67787433  1
  Fe  Fe35  1  0.66666667  0.33333333  0.83333333  1
  F  F36  1  0.96666833  0.30970167  0.02390167  1
  F  F37  1  0.99030000  0.35696500  0.14276500  1
  F  F38  1  0.00000000  0.00000000  0.09401800  1
  F  F39  1  0.30000167  0.32363333  0.19056833  1
  F  F40  1  0.32363333  0.30000167  0.30943167  1
  F  F41  1  0.69029833  0.65696667  0.02390167  1
  F  F42  1  0.66666667  0.33333333  0.08333333  1
  F  F43  1  0.64303500  0.63333500  0.14276500  1
  F  F44  1  0.33333333  0.66666667  0.26068467  1
  F  F45  1  0.33333333  0.66666667  0.07264867  1
  F  F46  1  0.02363167  0.69999833  0.19056833  1
  F  F47  1  0.00000000  0.00000000  0.25000000  1
  F  F48  1  0.97636833  0.67636667  0.30943167  1
  F  F49  1  0.34303333  0.03333167  0.02390167  1
  F  F50  1  0.36666500  0.00970000  0.14276500  1
  F  F51  1  0.66666667  0.33333333  0.23931533  1
  F  F52  1  0.67636667  0.97636833  0.19056833  1
  F  F53  1  0.69999833  0.02363167  0.30943167  1
  F  F54  1  0.63333500  0.64303500  0.35723500  1
  F  F55  1  0.65696667  0.69029833  0.47609833  1
  F  F56  1  0.66666667  0.33333333  0.42735133  1
  F  F57  1  0.96666833  0.65696667  0.52390167  1
  F  F58  1  0.99030000  0.63333500  0.64276500  1
  F  F59  1  0.35696500  0.99030000  0.35723500  1
  F  F60  1  0.33333333  0.66666667  0.41666667  1
  F  F61  1  0.30970167  0.96666833  0.47609833  1
  F  F62  1  0.00000000  0.00000000  0.59401800  1
  F  F63  1  0.00000000  0.00000000  0.40598200  1
  F  F64  1  0.69029833  0.03333167  0.52390167  1
  F  F65  1  0.66666667  0.33333333  0.58333333  1
  F  F66  1  0.64303500  0.00970000  0.64276500  1
  F  F67  1  0.00970000  0.36666500  0.35723500  1
  F  F68  1  0.03333167  0.34303333  0.47609833  1
  F  F69  1  0.33333333  0.66666667  0.57264867  1
  F  F70  1  0.34303333  0.30970167  0.52390167  1
  F  F71  1  0.36666500  0.35696500  0.64276500  1
  F  F72  1  0.30000167  0.97636833  0.69056833  1
  F  F73  1  0.32363333  0.02363167  0.80943167  1
  F  F74  1  0.33333333  0.66666667  0.76068467  1
  F  F75  1  0.63333500  0.99030000  0.85723500  1
  F  F76  1  0.65696667  0.96666833  0.97609833  1
  F  F77  1  0.02363167  0.32363333  0.69056833  1
  F  F78  1  0.00000000  0.00000000  0.75000000  1
  F  F79  1  0.97636833  0.30000167  0.80943167  1
  F  F80  1  0.66666667  0.33333333  0.92735133  1
  F  F81  1  0.66666667  0.33333333  0.73931533  1
  F  F82  1  0.35696500  0.36666500  0.85723500  1
  F  F83  1  0.33333333  0.66666667  0.91666667  1
  F  F84  1  0.30970167  0.34303333  0.97609833  1
  F  F85  1  0.67636667  0.69999833  0.69056833  1
  F  F86  1  0.69999833  0.67636667  0.80943167  1
  F  F87  1  0.00000000  0.00000000  0.90598200  1
  F  F88  1  0.00970000  0.64303500  0.85723500  1
  F  F89  1  0.03333167  0.69029833  0.97609833  1
