# generated using pymatgen
data_YH2(CO3)2
_symmetry_space_group_name_H-M   'P 1'
_cell_length_a   7.84601400
_cell_length_b   15.16791400
_cell_length_c   9.62255300
_cell_angle_alpha   90.00000000
_cell_angle_beta   90.00000000
_cell_angle_gamma   90.00000000
_symmetry_Int_Tables_number   1
_chemical_formula_structural   YH2(CO3)2
_chemical_formula_sum   'Y8 H16 C16 O48'
_cell_volume   1145.15756959
_cell_formula_units_Z   8
loop_
 _symmetry_equiv_pos_site_id
 _symmetry_equiv_pos_as_xyz
  1  'x, y, z'
loop_
 _atom_site_type_symbol
 _atom_site_label
 _atom_site_symmetry_multiplicity
 _atom_site_fract_x
 _atom_site_fract_y
 _atom_site_fract_z
 _atom_site_occupancy
  Y  Y0  1  0.00000000  0.29341000  0.75000000  1
  Y  Y1  1  0.00000000  0.29303500  0.25000000  1
  Y  Y2  1  0.50000000  0.20659000  0.25000000  1
  Y  Y3  1  0.50000000  0.20696500  0.75000000  1
  Y  Y4  1  0.50000000  0.79341000  0.75000000  1
  Y  Y5  1  0.50000000  0.79303500  0.25000000  1
  Y  Y6  1  0.00000000  0.70659000  0.25000000  1
  Y  Y7  1  0.00000000  0.70696500  0.75000000  1
  H  H8  1  0.60444950  0.39839150  0.75851100  1
  H  H9  1  0.89555050  0.10160850  0.25851100  1
  H  H10  1  0.89786550  0.10169050  0.73177100  1
  H  H11  1  0.10213450  0.10169050  0.76822900  1
  H  H12  1  0.10444950  0.10160850  0.24148900  1
  H  H13  1  0.39555050  0.39839150  0.74148900  1
  H  H14  1  0.39786550  0.39830950  0.26822900  1
  H  H15  1  0.60213450  0.39830950  0.23177100  1
  H  H16  1  0.10444950  0.89839150  0.75851100  1
  H  H17  1  0.39555050  0.60160850  0.25851100  1
  H  H18  1  0.39786550  0.60169050  0.73177100  1
  H  H19  1  0.60213450  0.60169050  0.76822900  1
  H  H20  1  0.60444950  0.60160850  0.24148900  1
  H  H21  1  0.89555050  0.89839150  0.74148900  1
  H  H22  1  0.89786550  0.89830950  0.26822900  1
  H  H23  1  0.10213450  0.89830950  0.23177100  1
  C  C24  1  0.40155400  0.00030900  0.24028200  1
  C  C25  1  0.59844600  0.00030900  0.25971800  1
  C  C26  1  0.90155400  0.49969100  0.75971800  1
  C  C27  1  0.09844600  0.49969100  0.74028200  1
  C  C28  1  0.80822300  0.27470900  0.50039600  1
  C  C29  1  0.19177700  0.27470900  0.99960400  1
  C  C30  1  0.30822300  0.22529100  0.49960400  1
  C  C31  1  0.69177700  0.22529100  0.00039600  1
  C  C32  1  0.90155400  0.50030900  0.24028200  1
  C  C33  1  0.09844600  0.50030900  0.25971800  1
  C  C34  1  0.40155400  0.99969100  0.75971800  1
  C  C35  1  0.59844600  0.99969100  0.74028200  1
  C  C36  1  0.30822300  0.77470900  0.50039600  1
  C  C37  1  0.69177700  0.77470900  0.99960400  1
  C  C38  1  0.80822300  0.72529100  0.49960400  1
  C  C39  1  0.19177700  0.72529100  0.00039600  1
  O  O40  1  0.75273950  0.24880850  0.88182900  1
  O  O41  1  0.75277150  0.24733950  0.11955700  1
  O  O42  1  0.82829600  0.42538700  0.75934500  1
  O  O43  1  0.83016800  0.42582300  0.22548500  1
  O  O44  1  0.94864350  0.32098050  0.49953500  1
  O  O45  1  0.00000000  0.13781000  0.75000000  1
  O  O46  1  0.00000000  0.13757600  0.25000000  1
  O  O47  1  0.05135650  0.32098050  0.00046500  1
  O  O48  1  0.16983200  0.42582300  0.27451500  1
  O  O49  1  0.17170400  0.42538700  0.74065500  1
  O  O50  1  0.24726050  0.24880850  0.61817100  1
  O  O51  1  0.24722850  0.24733950  0.38044300  1
  O  O52  1  0.25273950  0.25119150  0.11817100  1
  O  O53  1  0.25277150  0.25266050  0.88044300  1
  O  O54  1  0.32829600  0.07461300  0.24065500  1
  O  O55  1  0.33016800  0.07417700  0.77451500  1
  O  O56  1  0.44864350  0.17901950  0.50046500  1
  O  O57  1  0.50000000  0.36242400  0.75000000  1
  O  O58  1  0.50000000  0.36219000  0.25000000  1
  O  O59  1  0.55135650  0.17901950  0.99953500  1
  O  O60  1  0.66983200  0.07417700  0.72548500  1
  O  O61  1  0.67170400  0.07461300  0.25934500  1
  O  O62  1  0.74722850  0.25266050  0.61955700  1
  O  O63  1  0.74726050  0.25119150  0.38182900  1
  O  O64  1  0.25273950  0.74880850  0.88182900  1
  O  O65  1  0.25277150  0.74733950  0.11955700  1
  O  O66  1  0.32829600  0.92538700  0.75934500  1
  O  O67  1  0.33016800  0.92582300  0.22548500  1
  O  O68  1  0.44864350  0.82098050  0.49953500  1
  O  O69  1  0.50000000  0.63781000  0.75000000  1
  O  O70  1  0.50000000  0.63757600  0.25000000  1
  O  O71  1  0.55135650  0.82098050  0.00046500  1
  O  O72  1  0.66983200  0.92582300  0.27451500  1
  O  O73  1  0.67170400  0.92538700  0.74065500  1
  O  O74  1  0.74726050  0.74880850  0.61817100  1
  O  O75  1  0.74722850  0.74733950  0.38044300  1
  O  O76  1  0.75273950  0.75119150  0.11817100  1
  O  O77  1  0.75277150  0.75266050  0.88044300  1
  O  O78  1  0.82829600  0.57461300  0.24065500  1
  O  O79  1  0.83016800  0.57417700  0.77451500  1
  O  O80  1  0.94864350  0.67901950  0.50046500  1
  O  O81  1  0.00000000  0.86242400  0.75000000  1
  O  O82  1  0.00000000  0.86219000  0.25000000  1
  O  O83  1  0.05135650  0.67901950  0.99953500  1
  O  O84  1  0.16983200  0.57417700  0.72548500  1
  O  O85  1  0.17170400  0.57461300  0.25934500  1
  O  O86  1  0.24722850  0.75266050  0.61955700  1
  O  O87  1  0.24726050  0.75119150  0.38182900  1
