# generated using pymatgen
data_Li2Cr2(SO4)3
_symmetry_space_group_name_H-M   'P 1'
_cell_length_a   13.73169200
_cell_length_b   8.66347200
_cell_length_c   9.27424514
_cell_angle_alpha   90.00000000
_cell_angle_beta   119.41163199
_cell_angle_gamma   90.00000000
_symmetry_Int_Tables_number   1
_chemical_formula_structural   Li2Cr2(SO4)3
_chemical_formula_sum   'Li8 Cr8 S12 O48'
_cell_volume   961.10239609
_cell_formula_units_Z   4
loop_
 _symmetry_equiv_pos_site_id
 _symmetry_equiv_pos_as_xyz
  1  'x, y, z'
loop_
 _atom_site_type_symbol
 _atom_site_label
 _atom_site_symmetry_multiplicity
 _atom_site_fract_x
 _atom_site_fract_y
 _atom_site_fract_z
 _atom_site_occupancy
  Li  Li0  1  0.26798150  0.59528650  0.95011300  1
  Li  Li1  1  0.26798150  0.40471350  0.45011300  1
  Li  Li2  1  0.73201850  0.59528650  0.54988700  1
  Li  Li3  1  0.73201850  0.40471350  0.04988700  1
  Li  Li4  1  0.76798150  0.09528650  0.95011300  1
  Li  Li5  1  0.76798150  0.90471350  0.45011300  1
  Li  Li6  1  0.23201850  0.09528650  0.54988700  1
  Li  Li7  1  0.23201850  0.90471350  0.04988700  1
  Cr  Cr8  1  0.11723550  0.75071750  0.51987500  1
  Cr  Cr9  1  0.11723550  0.24928250  0.01987500  1
  Cr  Cr10  1  0.88276450  0.75071750  0.98012500  1
  Cr  Cr11  1  0.88276450  0.24928250  0.48012500  1
  Cr  Cr12  1  0.61723550  0.25071750  0.51987500  1
  Cr  Cr13  1  0.61723550  0.74928250  0.01987500  1
  Cr  Cr14  1  0.38276450  0.25071750  0.98012500  1
  Cr  Cr15  1  0.38276450  0.74928250  0.48012500  1
  S  S16  1  0.15023450  0.39508750  0.67582800  1
  S  S17  1  0.15023450  0.60491250  0.17582800  1
  S  S18  1  0.00000000  0.94642000  0.75000000  1
  S  S19  1  0.00000000  0.05358000  0.25000000  1
  S  S20  1  0.84976550  0.39508750  0.82417200  1
  S  S21  1  0.84976550  0.60491250  0.32417200  1
  S  S22  1  0.65023450  0.89508750  0.67582800  1
  S  S23  1  0.65023450  0.10491250  0.17582800  1
  S  S24  1  0.50000000  0.44642000  0.75000000  1
  S  S25  1  0.50000000  0.55358000  0.25000000  1
  S  S26  1  0.34976550  0.89508750  0.82417200  1
  S  S27  1  0.34976550  0.10491250  0.32417200  1
  O  O28  1  0.41157350  0.54611750  0.61515100  1
  O  O29  1  0.41157350  0.45388250  0.11515100  1
  O  O30  1  0.18677800  0.31652700  0.56913200  1
  O  O31  1  0.17509350  0.56452450  0.68507300  1
  O  O32  1  0.21716150  0.34267950  0.85396100  1
  O  O33  1  0.18677800  0.68347300  0.06913200  1
  O  O34  1  0.05727650  0.85260650  0.68371300  1
  O  O35  1  0.03180900  0.36843600  0.62153600  1
  O  O36  1  0.17509350  0.43547550  0.18507300  1
  O  O37  1  0.21716150  0.65732050  0.35396100  1
  O  O38  1  0.05727650  0.14739350  0.18371300  1
  O  O39  1  0.96819100  0.36843600  0.87846400  1
  O  O40  1  0.03180900  0.63156400  0.12153600  1
  O  O41  1  0.94272350  0.85260650  0.81628700  1
  O  O42  1  0.78283850  0.34267950  0.64603900  1
  O  O43  1  0.82490650  0.56452450  0.81492700  1
  O  O44  1  0.96819100  0.63156400  0.37846400  1
  O  O45  1  0.94272350  0.14739350  0.31628700  1
  O  O46  1  0.81322200  0.31652700  0.93086800  1
  O  O47  1  0.78283850  0.65732050  0.14603900  1
  O  O48  1  0.82490650  0.43547550  0.31492700  1
  O  O49  1  0.81322200  0.68347300  0.43086800  1
  O  O50  1  0.58842650  0.54611750  0.88484900  1
  O  O51  1  0.58842650  0.45388250  0.38484900  1
  O  O52  1  0.91157350  0.04611750  0.61515100  1
  O  O53  1  0.91157350  0.95388250  0.11515100  1
  O  O54  1  0.68677800  0.81652700  0.56913200  1
  O  O55  1  0.67509350  0.06452450  0.68507300  1
  O  O56  1  0.71716150  0.84267950  0.85396100  1
  O  O57  1  0.68677800  0.18347300  0.06913200  1
  O  O58  1  0.55727650  0.35260650  0.68371300  1
  O  O59  1  0.53180900  0.86843600  0.62153600  1
  O  O60  1  0.67509350  0.93547550  0.18507300  1
  O  O61  1  0.71716150  0.15732050  0.35396100  1
  O  O62  1  0.55727650  0.64739350  0.18371300  1
  O  O63  1  0.46819100  0.86843600  0.87846400  1
  O  O64  1  0.53180900  0.13156400  0.12153600  1
  O  O65  1  0.44272350  0.35260650  0.81628700  1
  O  O66  1  0.28283850  0.84267950  0.64603900  1
  O  O67  1  0.32490650  0.06452450  0.81492700  1
  O  O68  1  0.46819100  0.13156400  0.37846400  1
  O  O69  1  0.44272350  0.64739350  0.31628700  1
  O  O70  1  0.31322200  0.81652700  0.93086800  1
  O  O71  1  0.28283850  0.15732050  0.14603900  1
  O  O72  1  0.32490650  0.93547550  0.31492700  1
  O  O73  1  0.31322200  0.18347300  0.43086800  1
  O  O74  1  0.08842650  0.04611750  0.88484900  1
  O  O75  1  0.08842650  0.95388250  0.38484900  1
