# generated using pymatgen
data_HoBO3
_symmetry_space_group_name_H-M   'P 1'
_cell_length_a   4.10644800
_cell_length_b   6.69752400
_cell_length_c   8.61853900
_cell_angle_alpha   90.00000000
_cell_angle_beta   90.00000000
_cell_angle_gamma   90.00000000
_symmetry_Int_Tables_number   1
_chemical_formula_structural   HoBO3
_chemical_formula_sum   'Ho4 B4 O12'
_cell_volume   237.03597145
_cell_formula_units_Z   4
loop_
 _symmetry_equiv_pos_site_id
 _symmetry_equiv_pos_as_xyz
  1  'x, y, z'
loop_
 _atom_site_type_symbol
 _atom_site_label
 _atom_site_symmetry_multiplicity
 _atom_site_fract_x
 _atom_site_fract_y
 _atom_site_fract_z
 _atom_site_occupancy
  Ho  Ho0  1  0.05374900  0.00000000  0.00000000  1
  Ho  Ho1  1  0.05374900  0.00000000  0.50000000  1
  Ho  Ho2  1  0.55374900  0.50000000  0.00000000  1
  Ho  Ho3  1  0.55374900  0.50000000  0.50000000  1
  B  B4  1  0.63008950  0.87123150  0.25000000  1
  B  B5  1  0.63008950  0.12876850  0.75000000  1
  B  B6  1  0.13008950  0.37123150  0.25000000  1
  B  B7  1  0.13008950  0.62876850  0.75000000  1
  O  O8  1  0.50361650  0.82959250  0.10304900  1
  O  O9  1  0.50361650  0.82959250  0.39695100  1
  O  O10  1  0.92791850  0.96517850  0.25000000  1
  O  O11  1  0.50361650  0.17040750  0.60304900  1
  O  O12  1  0.50361650  0.17040750  0.89695100  1
  O  O13  1  0.92791850  0.03482150  0.75000000  1
  O  O14  1  0.00361650  0.32959250  0.10304900  1
  O  O15  1  0.00361650  0.32959250  0.39695100  1
  O  O16  1  0.42791850  0.46517850  0.25000000  1
  O  O17  1  0.00361650  0.67040750  0.60304900  1
  O  O18  1  0.00361650  0.67040750  0.89695100  1
  O  O19  1  0.42791850  0.53482150  0.75000000  1
