# generated using pymatgen
data_Li7Mn5O12
_symmetry_space_group_name_H-M   'P 1'
_cell_length_a   5.22527969
_cell_length_b   8.62418264
_cell_length_c   9.80067847
_cell_angle_alpha   90.00000000
_cell_angle_beta   97.25569177
_cell_angle_gamma   90.00000000
_symmetry_Int_Tables_number   1
_chemical_formula_structural   Li7Mn5O12
_chemical_formula_sum   'Li14 Mn10 O24'
_cell_volume   438.11888806
_cell_formula_units_Z   2
loop_
 _symmetry_equiv_pos_site_id
 _symmetry_equiv_pos_as_xyz
  1  'x, y, z'
loop_
 _atom_site_type_symbol
 _atom_site_label
 _atom_site_symmetry_multiplicity
 _atom_site_fract_x
 _atom_site_fract_y
 _atom_site_fract_z
 _atom_site_occupancy
  Li  Li0  1  0.50000000  0.50000000  0.00000000  1
  Li  Li1  1  0.75135075  0.50000000  0.75750000  1
  Li  Li2  1  0.24864925  0.50000000  0.24250000  1
  Li  Li3  1  0.75208975  0.83649925  0.75242600  1
  Li  Li4  1  0.24791025  0.83649925  0.24757400  1
  Li  Li5  1  0.25208975  0.66350075  0.75242600  1
  Li  Li6  1  0.74791025  0.66350075  0.24757400  1
  Li  Li7  1  0.00000000  0.00000000  0.00000000  1
  Li  Li8  1  0.25135075  0.00000000  0.75750000  1
  Li  Li9  1  0.74864925  0.00000000  0.24250000  1
  Li  Li10  1  0.25208975  0.33649925  0.75242600  1
  Li  Li11  1  0.74791025  0.33649925  0.24757400  1
  Li  Li12  1  0.75208975  0.16350075  0.75242600  1
  Li  Li13  1  0.24791025  0.16350075  0.24757400  1
  Mn  Mn14  1  0.50000000  0.00000000  0.50000000  1
  Mn  Mn15  1  0.50000000  0.16794925  0.00000000  1
  Mn  Mn16  1  0.50000000  0.83205075  0.00000000  1
  Mn  Mn17  1  0.50000000  0.66674600  0.50000000  1
  Mn  Mn18  1  0.50000000  0.33325400  0.50000000  1
  Mn  Mn19  1  0.00000000  0.50000000  0.50000000  1
  Mn  Mn20  1  0.00000000  0.66794925  0.00000000  1
  Mn  Mn21  1  0.00000000  0.33205075  0.00000000  1
  Mn  Mn22  1  0.00000000  0.16674600  0.50000000  1
  Mn  Mn23  1  0.00000000  0.83325400  0.50000000  1
  O  O24  1  0.60753650  0.00000000  0.88800000  1
  O  O25  1  0.39246350  0.00000000  0.11200000  1
  O  O26  1  0.59837775  0.50000000  0.37957200  1
  O  O27  1  0.40162225  0.50000000  0.62042800  1
  O  O28  1  0.15694775  0.82136825  0.89121800  1
  O  O29  1  0.65694775  0.67863175  0.89121800  1
  O  O30  1  0.84305225  0.82136825  0.10878200  1
  O  O31  1  0.34305225  0.67863175  0.10878200  1
  O  O32  1  0.60019300  0.83282300  0.38230800  1
  O  O33  1  0.10019300  0.66717700  0.38230800  1
  O  O34  1  0.39980700  0.83282300  0.61769200  1
  O  O35  1  0.89980700  0.66717700  0.61769200  1
  O  O36  1  0.10753650  0.50000000  0.88800000  1
  O  O37  1  0.89246350  0.50000000  0.11200000  1
  O  O38  1  0.09837775  0.00000000  0.37957200  1
  O  O39  1  0.90162225  0.00000000  0.62042800  1
  O  O40  1  0.65694775  0.32136825  0.89121800  1
  O  O41  1  0.15694775  0.17863175  0.89121800  1
  O  O42  1  0.34305225  0.32136825  0.10878200  1
  O  O43  1  0.84305225  0.17863175  0.10878200  1
  O  O44  1  0.10019300  0.33282300  0.38230800  1
  O  O45  1  0.60019300  0.16717700  0.38230800  1
  O  O46  1  0.89980700  0.33282300  0.61769200  1
  O  O47  1  0.39980700  0.16717700  0.61769200  1
