# generated using pymatgen
data_BSbO3
_symmetry_space_group_name_H-M   'P 1'
_cell_length_a   6.30020800
_cell_length_b   7.81886800
_cell_length_c   13.02491185
_cell_angle_alpha   90.00000000
_cell_angle_beta   102.43860352
_cell_angle_gamma   90.00000000
_symmetry_Int_Tables_number   1
_chemical_formula_structural   BSbO3
_chemical_formula_sum   'B8 Sb8 O24'
_cell_volume   626.55324707
_cell_formula_units_Z   8
loop_
 _symmetry_equiv_pos_site_id
 _symmetry_equiv_pos_as_xyz
  1  'x, y, z'
loop_
 _atom_site_type_symbol
 _atom_site_label
 _atom_site_symmetry_multiplicity
 _atom_site_fract_x
 _atom_site_fract_y
 _atom_site_fract_z
 _atom_site_occupancy
  B  B0  1  0.64055300  0.70302200  0.64719800  1
  B  B1  1  0.35944700  0.70302200  0.85280200  1
  B  B2  1  0.64055300  0.29697800  0.14719800  1
  B  B3  1  0.35944700  0.29697800  0.35280200  1
  B  B4  1  0.14055300  0.20302200  0.64719800  1
  B  B5  1  0.85944700  0.20302200  0.85280200  1
  B  B6  1  0.14055300  0.79697800  0.14719800  1
  B  B7  1  0.85944700  0.79697800  0.35280200  1
  Sb  Sb8  1  0.34090150  0.67382350  0.37158500  1
  Sb  Sb9  1  0.34090150  0.32617650  0.87158500  1
  Sb  Sb10  1  0.65909850  0.32617650  0.62841500  1
  Sb  Sb11  1  0.65909850  0.67382350  0.12841500  1
  Sb  Sb12  1  0.84090150  0.17382350  0.37158500  1
  Sb  Sb13  1  0.84090150  0.82617650  0.87158500  1
  Sb  Sb14  1  0.15909850  0.82617650  0.62841500  1
  Sb  Sb15  1  0.15909850  0.17382350  0.12841500  1
  O  O16  1  0.57869900  0.70588200  0.90324000  1
  O  O17  1  0.42130100  0.70588200  0.59676000  1
  O  O18  1  0.73028900  0.83228100  0.71425700  1
  O  O19  1  0.26971100  0.83228100  0.78574300  1
  O  O20  1  0.73091750  0.93230650  0.37414400  1
  O  O21  1  0.73091750  0.06769350  0.87414400  1
  O  O22  1  0.26908250  0.93230650  0.12585600  1
  O  O23  1  0.26908250  0.06769350  0.62585600  1
  O  O24  1  0.73028900  0.16771900  0.21425700  1
  O  O25  1  0.26971100  0.16771900  0.28574300  1
  O  O26  1  0.57869900  0.29411800  0.40324000  1
  O  O27  1  0.42130100  0.29411800  0.09676000  1
  O  O28  1  0.07869900  0.20588200  0.90324000  1
  O  O29  1  0.92130100  0.20588200  0.59676000  1
  O  O30  1  0.23028900  0.33228100  0.71425700  1
  O  O31  1  0.76971100  0.33228100  0.78574300  1
  O  O32  1  0.23091750  0.43230650  0.37414400  1
  O  O33  1  0.23091750  0.56769350  0.87414400  1
  O  O34  1  0.76908250  0.43230650  0.12585600  1
  O  O35  1  0.76908250  0.56769350  0.62585600  1
  O  O36  1  0.23028900  0.66771900  0.21425700  1
  O  O37  1  0.76971100  0.66771900  0.28574300  1
  O  O38  1  0.07869900  0.79411800  0.40324000  1
  O  O39  1  0.92130100  0.79411800  0.09676000  1
