# generated using pymatgen
data_Li2Cu(PO3)4
_symmetry_space_group_name_H-M   'P 1'
_cell_length_a   9.86788400
_cell_length_b   12.36013800
_cell_length_c   8.26614046
_cell_angle_alpha   90.00000000
_cell_angle_beta   99.05726782
_cell_angle_gamma   90.00000000
_symmetry_Int_Tables_number   1
_chemical_formula_structural   Li2Cu(PO3)4
_chemical_formula_sum   'Li8 Cu4 P16 O48'
_cell_volume   995.63714023
_cell_formula_units_Z   4
loop_
 _symmetry_equiv_pos_site_id
 _symmetry_equiv_pos_as_xyz
  1  'x, y, z'
loop_
 _atom_site_type_symbol
 _atom_site_label
 _atom_site_symmetry_multiplicity
 _atom_site_fract_x
 _atom_site_fract_y
 _atom_site_fract_z
 _atom_site_occupancy
  Li  Li0  1  0.36355050  0.18518050  0.94865600  1
  Li  Li1  1  0.36355050  0.81481950  0.44865600  1
  Li  Li2  1  0.65604650  0.17870650  0.54270200  1
  Li  Li3  1  0.65604650  0.82129350  0.04270200  1
  Li  Li4  1  0.86355050  0.68518050  0.94865600  1
  Li  Li5  1  0.86355050  0.31481950  0.44865600  1
  Li  Li6  1  0.15604650  0.67870650  0.54270200  1
  Li  Li7  1  0.15604650  0.32129350  0.04270200  1
  Cu  Cu8  1  0.53902250  0.64432750  0.74652400  1
  Cu  Cu9  1  0.53902250  0.35567250  0.24652400  1
  Cu  Cu10  1  0.03902250  0.14432750  0.74652400  1
  Cu  Cu11  1  0.03902250  0.85567250  0.24652400  1
  P  P12  1  0.15765050  0.91642550  0.68847600  1
  P  P13  1  0.15765050  0.08357450  0.18847600  1
  P  P14  1  0.36898950  0.81315450  0.92168100  1
  P  P15  1  0.36898950  0.18684550  0.42168100  1
  P  P16  1  0.67976500  0.82753300  0.58246900  1
  P  P17  1  0.67976500  0.17246700  0.08246900  1
  P  P18  1  0.89682150  0.92648150  0.81954400  1
  P  P19  1  0.89682150  0.07351850  0.31954400  1
  P  P20  1  0.65765050  0.41642550  0.68847600  1
  P  P21  1  0.65765050  0.58357450  0.18847600  1
  P  P22  1  0.86898950  0.31315450  0.92168100  1
  P  P23  1  0.86898950  0.68684550  0.42168100  1
  P  P24  1  0.17976500  0.32753300  0.58246900  1
  P  P25  1  0.17976500  0.67246700  0.08246900  1
  P  P26  1  0.39682150  0.42648150  0.81954400  1
  P  P27  1  0.39682150  0.57351850  0.31954400  1
  O  O28  1  0.13496500  0.03322900  0.64153500  1
  O  O29  1  0.19373100  0.83899100  0.56071200  1
  O  O30  1  0.13496500  0.96677100  0.14153500  1
  O  O31  1  0.19373100  0.16100900  0.06071200  1
  O  O32  1  0.27339200  0.91436300  0.85008600  1
  O  O33  1  0.27339200  0.08563700  0.35008600  1
  O  O34  1  0.85622200  0.85724200  0.95399100  1
  O  O35  1  0.43661350  0.77345650  0.78050800  1
  O  O36  1  0.85622200  0.14275800  0.45399100  1
  O  O37  1  0.45956000  0.15451400  0.57588800  1
  O  O38  1  0.43661350  0.22654350  0.28050800  1
  O  O39  1  0.45956000  0.84548600  0.07588800  1
  O  O40  1  0.52489800  0.36764200  0.75509400  1
  O  O41  1  0.54837800  0.12494300  0.00035600  1
  O  O42  1  0.52489800  0.63235800  0.25509400  1
  O  O43  1  0.54837800  0.87505700  0.50035600  1
  O  O44  1  0.68681700  0.74334600  0.71793500  1
  O  O45  1  0.75673250  0.22149450  0.94119300  1
  O  O46  1  0.68681700  0.25665400  0.21793500  1
  O  O47  1  0.75673250  0.77850550  0.44119300  1
  O  O48  1  0.77980400  0.92500200  0.65859000  1
  O  O49  1  0.77980400  0.07499800  0.15859000  1
  O  O50  1  0.92770850  0.04448550  0.85344600  1
  O  O51  1  0.92770850  0.95551450  0.35344600  1
  O  O52  1  0.63496500  0.53322900  0.64153500  1
  O  O53  1  0.69373100  0.33899100  0.56071200  1
  O  O54  1  0.63496500  0.46677100  0.14153500  1
  O  O55  1  0.69373100  0.66100900  0.06071200  1
  O  O56  1  0.77339200  0.41436300  0.85008600  1
  O  O57  1  0.77339200  0.58563700  0.35008600  1
  O  O58  1  0.35622200  0.35724200  0.95399100  1
  O  O59  1  0.93661350  0.27345650  0.78050800  1
  O  O60  1  0.35622200  0.64275800  0.45399100  1
  O  O61  1  0.95956000  0.65451400  0.57588800  1
  O  O62  1  0.93661350  0.72654350  0.28050800  1
  O  O63  1  0.95956000  0.34548600  0.07588800  1
  O  O64  1  0.02489800  0.86764200  0.75509400  1
  O  O65  1  0.04837800  0.62494300  0.00035600  1
  O  O66  1  0.02489800  0.13235800  0.25509400  1
  O  O67  1  0.04837800  0.37505700  0.50035600  1
  O  O68  1  0.18681700  0.24334600  0.71793500  1
  O  O69  1  0.25673250  0.72149450  0.94119300  1
  O  O70  1  0.18681700  0.75665400  0.21793500  1
  O  O71  1  0.25673250  0.27850550  0.44119300  1
  O  O72  1  0.27980400  0.42500200  0.65859000  1
  O  O73  1  0.27980400  0.57499800  0.15859000  1
  O  O74  1  0.42770850  0.54448550  0.85344600  1
  O  O75  1  0.42770850  0.45551450  0.35344600  1
