# generated using pymatgen
data_Mn2PO5
_symmetry_space_group_name_H-M   'P 1'
_cell_length_a   6.45080500
_cell_length_b   6.42874100
_cell_length_c   8.70570448
_cell_angle_alpha   90.00000000
_cell_angle_beta   103.08872710
_cell_angle_gamma   90.00000000
_symmetry_Int_Tables_number   1
_chemical_formula_structural   Mn2PO5
_chemical_formula_sum   'Mn8 P4 O20'
_cell_volume   351.65101909
_cell_formula_units_Z   4
loop_
 _symmetry_equiv_pos_site_id
 _symmetry_equiv_pos_as_xyz
  1  'x, y, z'
loop_
 _atom_site_type_symbol
 _atom_site_label
 _atom_site_symmetry_multiplicity
 _atom_site_fract_x
 _atom_site_fract_y
 _atom_site_fract_z
 _atom_site_occupancy
  Mn  Mn0  1  0.99017300  0.61835200  0.15460200  1
  Mn  Mn1  1  0.49017300  0.88164800  0.15460200  1
  Mn  Mn2  1  0.77952300  0.64680100  0.49106400  1
  Mn  Mn3  1  0.72047700  0.14680100  0.50893600  1
  Mn  Mn4  1  0.27952300  0.85319900  0.49106400  1
  Mn  Mn5  1  0.22047700  0.35319900  0.50893600  1
  Mn  Mn6  1  0.50982700  0.11835200  0.84539800  1
  Mn  Mn7  1  0.00982700  0.38164800  0.84539800  1
  P  P8  1  0.99428400  0.08883300  0.20903800  1
  P  P9  1  0.49428400  0.41116700  0.20903800  1
  P  P10  1  0.50571600  0.58883300  0.79096200  1
  P  P11  1  0.00571600  0.91116700  0.79096200  1
  O  O12  1  0.00518900  0.27884800  0.10518200  1
  O  O13  1  0.82523000  0.92619400  0.13482400  1
  O  O14  1  0.50518900  0.22115200  0.10518200  1
  O  O15  1  0.70957600  0.53670000  0.25370500  1
  O  O16  1  0.32523000  0.57380600  0.13482400  1
  O  O17  1  0.20957600  0.96330000  0.25370500  1
  O  O18  1  0.62081900  0.89138900  0.40362900  1
  O  O19  1  0.46446600  0.33620200  0.37517800  1
  O  O20  1  0.12081900  0.60861100  0.40362900  1
  O  O21  1  0.96446600  0.16379800  0.37517800  1
  O  O22  1  0.03553400  0.83620200  0.62482200  1
  O  O23  1  0.87918100  0.39138900  0.59637100  1
  O  O24  1  0.53553400  0.66379800  0.62482200  1
  O  O25  1  0.37918100  0.10861100  0.59637100  1
  O  O26  1  0.79042400  0.03670000  0.74629500  1
  O  O27  1  0.67477000  0.42619400  0.86517600  1
  O  O28  1  0.29042400  0.46330000  0.74629500  1
  O  O29  1  0.49481100  0.77884800  0.89481800  1
  O  O30  1  0.17477000  0.07380600  0.86517600  1
  O  O31  1  0.99481100  0.72115200  0.89481800  1
