# generated using pymatgen
data_Na2Co2(B4O7)3
_symmetry_space_group_name_H-M   'P 1'
_cell_length_a   23.02584400
_cell_length_b   4.60049600
_cell_length_c   17.27614494
_cell_angle_alpha   90.00000000
_cell_angle_beta   123.88498017
_cell_angle_gamma   90.00000000
_symmetry_Int_Tables_number   1
_chemical_formula_structural   Na2Co2(B4O7)3
_chemical_formula_sum   'Na8 Co8 B48 O84'
_cell_volume   1519.24584108
_cell_formula_units_Z   4
loop_
 _symmetry_equiv_pos_site_id
 _symmetry_equiv_pos_as_xyz
  1  'x, y, z'
loop_
 _atom_site_type_symbol
 _atom_site_label
 _atom_site_symmetry_multiplicity
 _atom_site_fract_x
 _atom_site_fract_y
 _atom_site_fract_z
 _atom_site_occupancy
  Na  Na0  1  0.85676800  0.44788200  0.50924100  1
  Na  Na1  1  0.14323200  0.44788200  0.99075900  1
  Na  Na2  1  0.14323200  0.55211800  0.49075900  1
  Na  Na3  1  0.85676800  0.55211800  0.00924100  1
  Na  Na4  1  0.35676800  0.94788200  0.50924100  1
  Na  Na5  1  0.64323200  0.94788200  0.99075900  1
  Na  Na6  1  0.64323200  0.05211800  0.49075900  1
  Na  Na7  1  0.35676800  0.05211800  0.00924100  1
  Co  Co8  1  0.95220850  0.50504950  0.39505800  1
  Co  Co9  1  0.95220850  0.49495050  0.89505800  1
  Co  Co10  1  0.04779150  0.50504950  0.10494200  1
  Co  Co11  1  0.04779150  0.49495050  0.60494200  1
  Co  Co12  1  0.45220850  0.00504950  0.39505800  1
  Co  Co13  1  0.45220850  0.99495050  0.89505800  1
  Co  Co14  1  0.54779150  0.00504950  0.10494200  1
  Co  Co15  1  0.54779150  0.99495050  0.60494200  1
  B  B16  1  0.33875700  0.53150000  0.84450400  1
  B  B17  1  0.83875700  0.96850000  0.34450400  1
  B  B18  1  0.75474600  0.12865400  0.18244600  1
  B  B19  1  0.33506400  0.75053100  0.70636100  1
  B  B20  1  0.91207200  0.35649000  0.20281000  1
  B  B21  1  0.24525400  0.87134600  0.81755400  1
  B  B22  1  0.08792800  0.64351000  0.79719000  1
  B  B23  1  0.01476850  0.94773850  0.82726900  1
  B  B24  1  0.91207200  0.64351000  0.70281000  1
  B  B25  1  0.05678250  0.01606150  0.49244200  1
  B  B26  1  0.66493600  0.24946900  0.29363900  1
  B  B27  1  0.98523150  0.05226150  0.17273100  1
  B  B28  1  0.66124300  0.46850000  0.15549600  1
  B  B29  1  0.98523150  0.94773850  0.67273100  1
  B  B30  1  0.01476850  0.05226150  0.32726900  1
  B  B31  1  0.16124300  0.03150000  0.65549600  1
  B  B32  1  0.94321750  0.01606150  0.00755800  1
  B  B33  1  0.08792800  0.35649000  0.29719000  1
  B  B34  1  0.94321750  0.98393850  0.50755800  1
  B  B35  1  0.25474600  0.37134600  0.68244600  1
  B  B36  1  0.05678250  0.98393850  0.99244200  1
  B  B37  1  0.74525400  0.62865400  0.31755400  1
  B  B38  1  0.16493600  0.25053100  0.79363900  1
  B  B39  1  0.83506400  0.74946900  0.20636100  1
  B  B40  1  0.83875700  0.03150000  0.84450400  1
  B  B41  1  0.33875700  0.46850000  0.34450400  1
  B  B42  1  0.25474600  0.62865400  0.18244600  1
  B  B43  1  0.83506400  0.25053100  0.70636100  1
  B  B44  1  0.41207200  0.85649000  0.20281000  1
  B  B45  1  0.74525400  0.37134600  0.81755400  1
  B  B46  1  0.58792800  0.14351000  0.79719000  1
  B  B47  1  0.51476850  0.44773850  0.82726900  1
  B  B48  1  0.41207200  0.14351000  0.70281000  1
  B  B49  1  0.55678250  0.51606150  0.49244200  1
  B  B50  1  0.16493600  0.74946900  0.29363900  1
  B  B51  1  0.48523150  0.55226150  0.17273100  1
  B  B52  1  0.16124300  0.96850000  0.15549600  1
  B  B53  1  0.48523150  0.44773850  0.67273100  1
  B  B54  1  0.51476850  0.55226150  0.32726900  1
  B  B55  1  0.66124300  0.53150000  0.65549600  1
  B  B56  1  0.44321750  0.51606150  0.00755800  1
  B  B57  1  0.58792800  0.85649000  0.29719000  1
  B  B58  1  0.44321750  0.48393850  0.50755800  1
  B  B59  1  0.75474600  0.87134600  0.68244600  1
  B  B60  1  0.55678250  0.48393850  0.99244200  1
  B  B61  1  0.24525400  0.12865400  0.31755400  1
  B  B62  1  0.66493600  0.75053100  0.79363900  1
  B  B63  1  0.33506400  0.24946900  0.20636100  1
  O  O64  1  0.89527150  0.13510450  0.42561500  1
  O  O65  1  0.19522350  0.21832050  0.62116300  1
  O  O66  1  0.07704200  0.24269400  0.36109100  1
  O  O67  1  0.02823850  0.87295050  0.40684700  1
  O  O68  1  0.95968750  0.29517850  0.00392900  1
  O  O69  1  0.20823750  0.82223650  0.72395700  1
  O  O70  1  0.10472850  0.86489550  0.57438500  1
  O  O71  1  0.77938300  0.92934600  0.14515400  1
  O  O72  1  0.02823850  0.12704950  0.90684700  1
  O  O73  1  0.14318600  0.55464600  0.33287500  1
  O  O74  1  0.80477650  0.78167950  0.37883700  1
  O  O75  1  0.85681400  0.55464600  0.16712500  1
  O  O76  1  0.95158400  0.26790700  0.29500900  1
  O  O77  1  0.92295800  0.75730600  0.63890900  1
  O  O78  1  0.00000000  0.87898500  0.25000000  1
  O  O79  1  0.07704200  0.75730600  0.86109100  1
  O  O80  1  0.95968750  0.70482150  0.50392900  1
  O  O81  1  0.97176150  0.87295050  0.09315300  1
  O  O82  1  0.69522350  0.28167950  0.12116300  1
  O  O83  1  0.29176250  0.32223650  0.77604300  1
  O  O84  1  0.04841600  0.73209300  0.70499100  1
  O  O85  1  0.39527150  0.36489550  0.92561500  1
  O  O86  1  0.13282450  0.23100650  0.69826200  1
  O  O87  1  0.86717550  0.76899350  0.30173800  1
  O  O88  1  0.27938300  0.57065400  0.64515400  1
  O  O89  1  0.60472850  0.63510450  0.07438500  1
  O  O90  1  0.36717550  0.73100650  0.80173800  1
  O  O91  1  0.14318600  0.44535400  0.83287500  1
  O  O92  1  0.70823750  0.67776350  0.22395700  1
  O  O93  1  0.97176150  0.12704950  0.59315300  1
  O  O94  1  0.30477650  0.71832050  0.87883700  1
  O  O95  1  0.04031250  0.29517850  0.49607100  1
  O  O96  1  0.85681400  0.44535400  0.66712500  1
  O  O97  1  0.79176250  0.17776350  0.27604300  1
  O  O98  1  0.95158400  0.73209300  0.79500900  1
  O  O99  1  0.04841600  0.26790700  0.20499100  1
  O  O100  1  0.22061700  0.07065400  0.85484600  1
  O  O101  1  0.72061700  0.42934600  0.35484600  1
  O  O102  1  0.92295800  0.24269400  0.13890900  1
  O  O103  1  0.00000000  0.12101500  0.75000000  1
  O  O104  1  0.63282450  0.26899350  0.19826200  1
  O  O105  1  0.04031250  0.70482150  0.99607100  1
  O  O106  1  0.39527150  0.63510450  0.42561500  1
  O  O107  1  0.69522350  0.71832050  0.62116300  1
  O  O108  1  0.57704200  0.74269400  0.36109100  1
  O  O109  1  0.52823850  0.37295050  0.40684700  1
  O  O110  1  0.45968750  0.79517850  0.00392900  1
  O  O111  1  0.70823750  0.32223650  0.72395700  1
  O  O112  1  0.60472850  0.36489550  0.57438500  1
  O  O113  1  0.27938300  0.42934600  0.14515400  1
  O  O114  1  0.52823850  0.62704950  0.90684700  1
  O  O115  1  0.64318600  0.05464600  0.33287500  1
  O  O116  1  0.30477650  0.28167950  0.37883700  1
  O  O117  1  0.35681400  0.05464600  0.16712500  1
  O  O118  1  0.45158400  0.76790700  0.29500900  1
  O  O119  1  0.42295800  0.25730600  0.63890900  1
  O  O120  1  0.50000000  0.37898500  0.25000000  1
  O  O121  1  0.57704200  0.25730600  0.86109100  1
  O  O122  1  0.45968750  0.20482150  0.50392900  1
  O  O123  1  0.47176150  0.37295050  0.09315300  1
  O  O124  1  0.19522350  0.78167950  0.12116300  1
  O  O125  1  0.79176250  0.82223650  0.77604300  1
  O  O126  1  0.54841600  0.23209300  0.70499100  1
  O  O127  1  0.89527150  0.86489550  0.92561500  1
  O  O128  1  0.63282450  0.73100650  0.69826200  1
  O  O129  1  0.36717550  0.26899350  0.30173800  1
  O  O130  1  0.77938300  0.07065400  0.64515400  1
  O  O131  1  0.10472850  0.13510450  0.07438500  1
  O  O132  1  0.86717550  0.23100650  0.80173800  1
  O  O133  1  0.64318600  0.94535400  0.83287500  1
  O  O134  1  0.20823750  0.17776350  0.22395700  1
  O  O135  1  0.47176150  0.62704950  0.59315300  1
  O  O136  1  0.80477650  0.21832050  0.87883700  1
  O  O137  1  0.54031250  0.79517850  0.49607100  1
  O  O138  1  0.35681400  0.94535400  0.66712500  1
  O  O139  1  0.29176250  0.67776350  0.27604300  1
  O  O140  1  0.45158400  0.23209300  0.79500900  1
  O  O141  1  0.54841600  0.76790700  0.20499100  1
  O  O142  1  0.72061700  0.57065400  0.85484600  1
  O  O143  1  0.22061700  0.92934600  0.35484600  1
  O  O144  1  0.42295800  0.74269400  0.13890900  1
  O  O145  1  0.50000000  0.62101500  0.75000000  1
  O  O146  1  0.13282450  0.76899350  0.19826200  1
  O  O147  1  0.54031250  0.20482150  0.99607100  1
