# generated using pymatgen
data_Ho(ClO4)3
_symmetry_space_group_name_H-M   'P 1'
_cell_length_a   8.25243832
_cell_length_b   8.25243832
_cell_length_c   24.50662930
_cell_angle_alpha   90.00000000
_cell_angle_beta   90.00000000
_cell_angle_gamma   120.00000000
_symmetry_Int_Tables_number   1
_chemical_formula_structural   Ho(ClO4)3
_chemical_formula_sum   'Ho6 Cl18 O72'
_cell_volume   1445.36916996
_cell_formula_units_Z   6
loop_
 _symmetry_equiv_pos_site_id
 _symmetry_equiv_pos_as_xyz
  1  'x, y, z'
loop_
 _atom_site_type_symbol
 _atom_site_label
 _atom_site_symmetry_multiplicity
 _atom_site_fract_x
 _atom_site_fract_y
 _atom_site_fract_z
 _atom_site_occupancy
  Ho  Ho0  1  0.00000000  0.00000000  0.05811800  1
  Ho  Ho1  1  0.33333333  0.66666667  0.22478467  1
  Ho  Ho2  1  0.66666667  0.33333333  0.39145133  1
  Ho  Ho3  1  0.00000000  0.00000000  0.55811800  1
  Ho  Ho4  1  0.33333333  0.66666667  0.72478467  1
  Ho  Ho5  1  0.66666667  0.33333333  0.89145133  1
  Cl  Cl6  1  0.68924700  0.65513000  0.00026400  1
  Cl  Cl7  1  0.02258033  0.70078367  0.16693067  1
  Cl  Cl8  1  0.67820333  0.97741967  0.16693067  1
  Cl  Cl9  1  0.34487000  0.03411700  0.00026400  1
  Cl  Cl10  1  0.96588300  0.31075300  0.00026400  1
  Cl  Cl11  1  0.29921633  0.32179667  0.16693067  1
  Cl  Cl12  1  0.35591367  0.98846333  0.33359733  1
  Cl  Cl13  1  0.68924700  0.03411700  0.50026400  1
  Cl  Cl14  1  0.34487000  0.31075300  0.50026400  1
  Cl  Cl15  1  0.01153667  0.36745033  0.33359733  1
  Cl  Cl16  1  0.63254967  0.64408633  0.33359733  1
  Cl  Cl17  1  0.96588300  0.65513000  0.50026400  1
  Cl  Cl18  1  0.02258033  0.32179667  0.66693067  1
  Cl  Cl19  1  0.35591367  0.36745033  0.83359733  1
  Cl  Cl20  1  0.01153667  0.64408633  0.83359733  1
  Cl  Cl21  1  0.67820333  0.70078367  0.66693067  1
  Cl  Cl22  1  0.29921633  0.97741967  0.66693067  1
  Cl  Cl23  1  0.63254967  0.98846333  0.83359733  1
  O  O24  1  0.81074667  0.24379133  0.32013133  1
  O  O25  1  0.07922033  0.84151867  0.12319667  1
  O  O26  1  0.77378367  0.17410933  0.17397233  1
  O  O27  1  0.79044767  0.65807333  0.05056733  1
  O  O28  1  0.12378100  0.79904100  0.21723400  1
  O  O29  1  0.44045033  0.93300767  0.00730567  1
  O  O30  1  0.41255367  0.90436833  0.28986333  1
  O  O31  1  0.82589067  0.59967433  0.17397233  1
  O  O32  1  0.47741333  0.90028867  0.15346467  1
  O  O33  1  0.76229833  0.92077967  0.12319667  1
  O  O34  1  0.67526000  0.87621900  0.21723400  1
  O  O35  1  0.09971133  0.57712467  0.15346467  1
  O  O36  1  0.06699233  0.50744267  0.00730567  1
  O  O37  1  0.43304467  0.18925333  0.32013133  1
  O  O38  1  0.34192667  0.13237433  0.05056733  1
  O  O39  1  0.09563167  0.50818533  0.28986333  1
  O  O40  1  0.49181467  0.58744633  0.28986333  1
  O  O41  1  0.49255733  0.55954967  0.00730567  1
  O  O42  1  0.42287533  0.52258667  0.15346467  1
  O  O43  1  0.86762567  0.20955233  0.05056733  1
  O  O44  1  0.20095900  0.32474000  0.21723400  1
  O  O45  1  0.75620867  0.56695533  0.32013133  1
  O  O46  1  0.15848133  0.23770167  0.12319667  1
  O  O47  1  0.40032567  0.22621633  0.17397233  1
  O  O48  1  0.47741333  0.57712467  0.65346467  1
  O  O49  1  0.74588700  0.17485200  0.45653000  1
  O  O50  1  0.44045033  0.50744267  0.50730567  1
  O  O51  1  0.45711433  0.99140667  0.38390067  1
  O  O52  1  0.79044767  0.13237433  0.55056733  1
  O  O53  1  0.10711700  0.26634100  0.34063900  1
  O  O54  1  0.07922033  0.23770167  0.62319667  1
  O  O55  1  0.49255733  0.93300767  0.50730567  1
  O  O56  1  0.14408000  0.23362200  0.48679800  1
  O  O57  1  0.42896500  0.25411300  0.45653000  1
  O  O58  1  0.34192667  0.20955233  0.55056733  1
  O  O59  1  0.76637800  0.91045800  0.48679800  1
  O  O60  1  0.73365900  0.84077600  0.34063900  1
  O  O61  1  0.09971133  0.52258667  0.65346467  1
  O  O62  1  0.00859333  0.46570767  0.38390067  1
  O  O63  1  0.76229833  0.84151867  0.62319667  1
  O  O64  1  0.15848133  0.92077967  0.62319667  1
  O  O65  1  0.15922400  0.89288300  0.34063900  1
  O  O66  1  0.08954200  0.85592000  0.48679800  1
  O  O67  1  0.53429233  0.54288567  0.38390067  1
  O  O68  1  0.86762567  0.65807333  0.55056733  1
  O  O69  1  0.42287533  0.90028867  0.65346467  1
  O  O70  1  0.82514800  0.57103500  0.45653000  1
  O  O71  1  0.06699233  0.55954967  0.50730567  1
  O  O72  1  0.14408000  0.91045800  0.98679800  1
  O  O73  1  0.41255367  0.50818533  0.78986333  1
  O  O74  1  0.10711700  0.84077600  0.84063900  1
  O  O75  1  0.12378100  0.32474000  0.71723400  1
  O  O76  1  0.45711433  0.46570767  0.88390067  1
  O  O77  1  0.77378367  0.59967433  0.67397233  1
  O  O78  1  0.74588700  0.57103500  0.95653000  1
  O  O79  1  0.15922400  0.26634100  0.84063900  1
  O  O80  1  0.81074667  0.56695533  0.82013133  1
  O  O81  1  0.09563167  0.58744633  0.78986333  1
  O  O82  1  0.00859333  0.54288567  0.88390067  1
  O  O83  1  0.43304467  0.24379133  0.82013133  1
  O  O84  1  0.40032567  0.17410933  0.67397233  1
  O  O85  1  0.76637800  0.85592000  0.98679800  1
  O  O86  1  0.67526000  0.79904100  0.71723400  1
  O  O87  1  0.42896500  0.17485200  0.95653000  1
  O  O88  1  0.82514800  0.25411300  0.95653000  1
  O  O89  1  0.82589067  0.22621633  0.67397233  1
  O  O90  1  0.75620867  0.18925333  0.82013133  1
  O  O91  1  0.20095900  0.87621900  0.71723400  1
  O  O92  1  0.53429233  0.99140667  0.88390067  1
  O  O93  1  0.08954200  0.23362200  0.98679800  1
  O  O94  1  0.49181467  0.90436833  0.78986333  1
  O  O95  1  0.73365900  0.89288300  0.84063900  1
