# generated using pymatgen
data_Ba2Sb2O7
_symmetry_space_group_name_H-M   'P 1'
_cell_length_a   7.79195200
_cell_length_b   8.08498800
_cell_length_c   10.75519200
_cell_angle_alpha   90.00000000
_cell_angle_beta   90.00000000
_cell_angle_gamma   90.00000000
_symmetry_Int_Tables_number   1
_chemical_formula_structural   Ba2Sb2O7
_chemical_formula_sum   'Ba8 Sb8 O28'
_cell_volume   677.55384776
_cell_formula_units_Z   4
loop_
 _symmetry_equiv_pos_site_id
 _symmetry_equiv_pos_as_xyz
  1  'x, y, z'
loop_
 _atom_site_type_symbol
 _atom_site_label
 _atom_site_symmetry_multiplicity
 _atom_site_fract_x
 _atom_site_fract_y
 _atom_site_fract_z
 _atom_site_occupancy
  Ba  Ba0  1  0.00000000  0.00000000  0.00000000  1
  Ba  Ba1  1  0.00000000  0.00000000  0.50000000  1
  Ba  Ba2  1  0.25000000  0.75000000  0.75000000  1
  Ba  Ba3  1  0.25000000  0.25000000  0.25000000  1
  Ba  Ba4  1  0.50000000  0.50000000  0.50000000  1
  Ba  Ba5  1  0.50000000  0.50000000  0.00000000  1
  Ba  Ba6  1  0.75000000  0.25000000  0.25000000  1
  Ba  Ba7  1  0.75000000  0.75000000  0.75000000  1
  Sb  Sb8  1  0.75000000  0.75000000  0.25000000  1
  Sb  Sb9  1  0.00000000  0.50000000  0.00000000  1
  Sb  Sb10  1  0.25000000  0.75000000  0.25000000  1
  Sb  Sb11  1  0.50000000  0.00000000  0.00000000  1
  Sb  Sb12  1  0.25000000  0.25000000  0.75000000  1
  Sb  Sb13  1  0.50000000  0.00000000  0.50000000  1
  Sb  Sb14  1  0.75000000  0.25000000  0.75000000  1
  Sb  Sb15  1  0.00000000  0.50000000  0.50000000  1
  O  O16  1  0.80165350  0.57422450  0.38001650  1
  O  O17  1  0.00000000  0.84544200  0.25000000  1
  O  O18  1  0.00000000  0.70753200  0.58809400  1
  O  O19  1  0.00000000  0.29246800  0.08809400  1
  O  O20  1  0.19834650  0.57422450  0.11998350  1
  O  O21  1  0.19834650  0.42577550  0.88001650  1
  O  O22  1  0.19834650  0.57422450  0.38001650  1
  O  O23  1  0.30165350  0.92577550  0.11998350  1
  O  O24  1  0.30165350  0.92577550  0.38001650  1
  O  O25  1  0.30165350  0.07422450  0.61998350  1
  O  O26  1  0.50000000  0.79246800  0.91190600  1
  O  O27  1  0.50000000  0.20753200  0.41190600  1
  O  O28  1  0.50000000  0.65455800  0.25000000  1
  O  O29  1  0.69834650  0.92577550  0.11998350  1
  O  O30  1  0.30165350  0.07422450  0.88001650  1
  O  O31  1  0.50000000  0.34544200  0.75000000  1
  O  O32  1  0.50000000  0.20753200  0.08809400  1
  O  O33  1  0.50000000  0.79246800  0.58809400  1
  O  O34  1  0.69834650  0.07422450  0.61998350  1
  O  O35  1  0.69834650  0.92577550  0.38001650  1
  O  O36  1  0.69834650  0.07422450  0.88001650  1
  O  O37  1  0.80165350  0.42577550  0.61998350  1
  O  O38  1  0.80165350  0.42577550  0.88001650  1
  O  O39  1  0.80165350  0.57422450  0.11998350  1
  O  O40  1  0.00000000  0.29246800  0.41190600  1
  O  O41  1  0.00000000  0.70753200  0.91190600  1
  O  O42  1  0.00000000  0.15455800  0.75000000  1
  O  O43  1  0.19834650  0.42577550  0.61998350  1
