# generated using pymatgen
data_BaYBr5
_symmetry_space_group_name_H-M   'P 1'
_cell_length_a   13.12735200
_cell_length_b   9.26538200
_cell_length_c   11.05830985
_cell_angle_alpha   90.00000000
_cell_angle_beta   115.43133459
_cell_angle_gamma   90.00000000
_symmetry_Int_Tables_number   1
_chemical_formula_structural   BaYBr5
_chemical_formula_sum   'Ba4 Y4 Br20'
_cell_volume   1214.68965878
_cell_formula_units_Z   4
loop_
 _symmetry_equiv_pos_site_id
 _symmetry_equiv_pos_as_xyz
  1  'x, y, z'
loop_
 _atom_site_type_symbol
 _atom_site_label
 _atom_site_symmetry_multiplicity
 _atom_site_fract_x
 _atom_site_fract_y
 _atom_site_fract_z
 _atom_site_occupancy
  Ba  Ba0  1  0.00000000  0.44386100  0.75000000  1
  Ba  Ba1  1  0.00000000  0.55613900  0.25000000  1
  Ba  Ba2  1  0.50000000  0.94386100  0.75000000  1
  Ba  Ba3  1  0.50000000  0.05613900  0.25000000  1
  Y  Y4  1  0.00000000  0.00000000  0.00000000  1
  Y  Y5  1  0.00000000  0.00000000  0.50000000  1
  Y  Y6  1  0.50000000  0.50000000  0.00000000  1
  Y  Y7  1  0.50000000  0.50000000  0.50000000  1
  Br  Br8  1  0.26842200  0.47865800  0.87889600  1
  Br  Br9  1  0.98683450  0.69887550  0.52929500  1
  Br  Br10  1  0.26842200  0.52134200  0.37889600  1
  Br  Br11  1  0.00000000  0.07772500  0.75000000  1
  Br  Br12  1  0.01316550  0.69887550  0.97070500  1
  Br  Br13  1  0.98683450  0.30112450  0.02929500  1
  Br  Br14  1  0.00000000  0.92227500  0.25000000  1
  Br  Br15  1  0.73157800  0.47865800  0.62110400  1
  Br  Br16  1  0.01316550  0.30112450  0.47070500  1
  Br  Br17  1  0.73157800  0.52134200  0.12110400  1
  Br  Br18  1  0.76842200  0.97865800  0.87889600  1
  Br  Br19  1  0.48683450  0.19887550  0.52929500  1
  Br  Br20  1  0.76842200  0.02134200  0.37889600  1
  Br  Br21  1  0.50000000  0.57772500  0.75000000  1
  Br  Br22  1  0.51316550  0.19887550  0.97070500  1
  Br  Br23  1  0.48683450  0.80112450  0.02929500  1
  Br  Br24  1  0.50000000  0.42227500  0.25000000  1
  Br  Br25  1  0.23157800  0.97865800  0.62110400  1
  Br  Br26  1  0.51316550  0.80112450  0.47070500  1
  Br  Br27  1  0.23157800  0.02134200  0.12110400  1
