# generated using pymatgen
data_Li3V3P8O29
_symmetry_space_group_name_H-M   'P 1'
_cell_length_a   16.93375200
_cell_length_b   9.72562400
_cell_length_c   14.29960050
_cell_angle_alpha   90.00000000
_cell_angle_beta   90.64834772
_cell_angle_gamma   90.00000000
_symmetry_Int_Tables_number   1
_chemical_formula_structural   Li3V3P8O29
_chemical_formula_sum   'Li12 V12 P32 O116'
_cell_volume   2354.86909045
_cell_formula_units_Z   4
loop_
 _symmetry_equiv_pos_site_id
 _symmetry_equiv_pos_as_xyz
  1  'x, y, z'
loop_
 _atom_site_type_symbol
 _atom_site_label
 _atom_site_symmetry_multiplicity
 _atom_site_fract_x
 _atom_site_fract_y
 _atom_site_fract_z
 _atom_site_occupancy
  Li  Li0  1  0.83644650  0.06747750  0.19237300  1
  Li  Li1  1  0.54321450  0.77501550  0.69562700  1
  Li  Li2  1  0.95678550  0.27501550  0.30437300  1
  Li  Li3  1  0.66355350  0.56747750  0.80762700  1
  Li  Li4  1  0.53195400  0.45978600  0.25788100  1
  Li  Li5  1  0.96804600  0.95978600  0.74211900  1
  Li  Li6  1  0.33644650  0.56747750  0.19237300  1
  Li  Li7  1  0.04321450  0.27501550  0.69562700  1
  Li  Li8  1  0.45678550  0.77501550  0.30437300  1
  Li  Li9  1  0.16355350  0.06747750  0.80762700  1
  Li  Li10  1  0.03195400  0.95978600  0.25788100  1
  Li  Li11  1  0.46804600  0.45978600  0.74211900  1
  V  V12  1  0.00000000  0.56881500  0.00000000  1
  V  V13  1  0.00000000  0.44219900  0.50000000  1
  V  V14  1  0.78251300  0.78284500  0.49510700  1
  V  V15  1  0.71874900  0.72171000  0.00610500  1
  V  V16  1  0.78125100  0.22171000  0.99389500  1
  V  V17  1  0.71748700  0.28284500  0.50489300  1
  V  V18  1  0.50000000  0.06881500  0.00000000  1
  V  V19  1  0.50000000  0.94219900  0.50000000  1
  V  V20  1  0.28251300  0.28284500  0.49510700  1
  V  V21  1  0.21874900  0.22171000  0.00610500  1
  V  V22  1  0.28125100  0.72171000  0.99389500  1
  V  V23  1  0.21748700  0.78284500  0.50489300  1
  P  P24  1  0.84285350  0.07228950  0.40936300  1
  P  P25  1  0.84437300  0.93006200  0.90818400  1
  P  P26  1  0.60888650  0.30669050  0.90930900  1
  P  P27  1  0.66739300  0.00427600  0.11784300  1
  P  P28  1  0.66733800  0.99629700  0.61620900  1
  P  P29  1  0.54358400  0.24021500  0.40986800  1
  P  P30  1  0.95641600  0.74021500  0.59013200  1
  P  P31  1  0.60838550  0.69549250  0.40826500  1
  P  P32  1  0.89111350  0.80669050  0.09069100  1
  P  P33  1  0.54490950  0.76926150  0.91060600  1
  P  P34  1  0.95509050  0.26926150  0.08939400  1
  P  P35  1  0.83260700  0.50427600  0.88215700  1
  P  P36  1  0.83266200  0.49629700  0.38379100  1
  P  P37  1  0.89161450  0.19549250  0.59173500  1
  P  P38  1  0.65714650  0.57228950  0.59063700  1
  P  P39  1  0.65562700  0.43006200  0.09181600  1
  P  P40  1  0.34285350  0.57228950  0.40936300  1
  P  P41  1  0.34437300  0.43006200  0.90818400  1
  P  P42  1  0.10888650  0.80669050  0.90930900  1
  P  P43  1  0.16739300  0.50427600  0.11784300  1
  P  P44  1  0.16733800  0.49629700  0.61620900  1
  P  P45  1  0.04358400  0.74021500  0.40986800  1
  P  P46  1  0.45641600  0.24021500  0.59013200  1
  P  P47  1  0.10838550  0.19549250  0.40826500  1
  P  P48  1  0.39111350  0.30669050  0.09069100  1
  P  P49  1  0.04490950  0.26926150  0.91060600  1
  P  P50  1  0.45509050  0.76926150  0.08939400  1
  P  P51  1  0.33260700  0.00427600  0.88215700  1
  P  P52  1  0.33266200  0.99629700  0.38379100  1
  P  P53  1  0.39161450  0.69549250  0.59173500  1
  P  P54  1  0.15714650  0.07228950  0.59063700  1
  P  P55  1  0.15562700  0.93006200  0.09181600  1
  O  O56  1  0.90501250  0.10373950  0.67285900  1
  O  O57  1  0.82336450  0.08560950  0.92014500  1
  O  O58  1  0.89546200  0.89959600  0.17321000  1
  O  O59  1  0.82803950  0.91528250  0.41449500  1
  O  O60  1  0.76414200  0.14776000  0.42698200  1
  O  O61  1  0.74264500  0.07477900  0.07773900  1
  O  O62  1  0.68899100  0.22734100  0.92109300  1
  O  O63  1  0.61206100  0.40099100  0.17803400  1
  O  O64  1  0.63118250  0.28479950  0.42272600  1
  O  O65  1  0.73867250  0.92355850  0.56720700  1
  O  O66  1  0.76739350  0.84739150  0.92338300  1
  O  O67  1  0.66713500  0.14575100  0.57554200  1
  O  O68  1  0.66826350  0.99563850  0.22134200  1
  O  O69  1  0.66426450  0.98416650  0.71943300  1
  O  O70  1  0.59292900  0.07463200  0.07237100  1
  O  O71  1  0.68971500  0.76846000  0.41790500  1
  O  O72  1  0.66781300  0.85459600  0.07060000  1
  O  O73  1  0.54127800  0.20013800  0.91520100  1
  O  O74  1  0.00000000  0.80188300  0.50000000  1
  O  O75  1  0.99335950  0.79442950  0.67638800  1
  O  O76  1  0.50664050  0.29442950  0.32361200  1
  O  O77  1  0.54013850  0.08027950  0.42307700  1
  O  O78  1  0.59188050  0.92148450  0.57190500  1
  O  O79  1  0.95872200  0.70013800  0.08479900  1
  O  O80  1  0.54454900  0.92705200  0.92638900  1
  O  O81  1  0.63074750  0.71160550  0.91664800  1
  O  O82  1  0.90014900  0.89775900  0.99752400  1
  O  O83  1  0.88793900  0.90099100  0.82196600  1
  O  O84  1  0.61831700  0.61481900  0.68012400  1
  O  O85  1  0.86881750  0.78479950  0.57727400  1
  O  O86  1  0.95986150  0.58027950  0.57692300  1
  O  O87  1  0.54059500  0.80540700  0.41323200  1
  O  O88  1  0.90707100  0.57463200  0.92762900  1
  O  O89  1  0.95545100  0.42705200  0.07361100  1
  O  O90  1  0.99185050  0.22610950  0.17988100  1
  O  O91  1  0.50814950  0.72610950  0.82011900  1
  O  O92  1  0.00000000  0.20411300  0.00000000  1
  O  O93  1  0.95940500  0.30540700  0.58676800  1
  O  O94  1  0.83286500  0.64575100  0.42445800  1
  O  O95  1  0.81100900  0.72734100  0.07890700  1
  O  O96  1  0.90811950  0.42148450  0.42809500  1
  O  O97  1  0.83573550  0.48416650  0.28056700  1
  O  O98  1  0.83173650  0.49563850  0.77865800  1
  O  O99  1  0.83218700  0.35459600  0.92940000  1
  O  O100  1  0.73585800  0.64776000  0.57301800  1
  O  O101  1  0.75735500  0.57477900  0.92226100  1
  O  O102  1  0.86925250  0.21160550  0.08335200  1
  O  O103  1  0.90141400  0.10897100  0.49474500  1
  O  O104  1  0.88168300  0.11481900  0.31987600  1
  O  O105  1  0.81028500  0.26846000  0.58209500  1
  O  O106  1  0.76132750  0.42355850  0.43279300  1
  O  O107  1  0.73260650  0.34739150  0.07661700  1
  O  O108  1  0.67663550  0.58560950  0.07985500  1
  O  O109  1  0.59498750  0.60373950  0.32714100  1
  O  O110  1  0.59858600  0.60897100  0.50525500  1
  O  O111  1  0.67196050  0.41528250  0.58550500  1
  O  O112  1  0.60453800  0.39959600  0.82679000  1
  O  O113  1  0.59985100  0.39775900  0.00247600  1
  O  O114  1  0.40501250  0.60373950  0.67285900  1
  O  O115  1  0.32336450  0.58560950  0.92014500  1
  O  O116  1  0.39546200  0.39959600  0.17321000  1
  O  O117  1  0.32803950  0.41528250  0.41449500  1
  O  O118  1  0.26414200  0.64776000  0.42698200  1
  O  O119  1  0.24264500  0.57477900  0.07773900  1
  O  O120  1  0.18899100  0.72734100  0.92109300  1
  O  O121  1  0.11206100  0.90099100  0.17803400  1
  O  O122  1  0.13118250  0.78479950  0.42272600  1
  O  O123  1  0.23867250  0.42355850  0.56720700  1
  O  O124  1  0.26739350  0.34739150  0.92338300  1
  O  O125  1  0.16713500  0.64575100  0.57554200  1
  O  O126  1  0.16826350  0.49563850  0.22134200  1
  O  O127  1  0.16426450  0.48416650  0.71943300  1
  O  O128  1  0.09292900  0.57463200  0.07237100  1
  O  O129  1  0.18971500  0.26846000  0.41790500  1
  O  O130  1  0.16781300  0.35459600  0.07060000  1
  O  O131  1  0.04127800  0.70013800  0.91520100  1
  O  O132  1  0.50000000  0.30188300  0.50000000  1
  O  O133  1  0.49335950  0.29442950  0.67638800  1
  O  O134  1  0.00664050  0.79442950  0.32361200  1
  O  O135  1  0.04013850  0.58027950  0.42307700  1
  O  O136  1  0.09188050  0.42148450  0.57190500  1
  O  O137  1  0.45872200  0.20013800  0.08479900  1
  O  O138  1  0.04454900  0.42705200  0.92638900  1
  O  O139  1  0.13074750  0.21160550  0.91664800  1
  O  O140  1  0.40014900  0.39775900  0.99752400  1
  O  O141  1  0.38793900  0.40099100  0.82196600  1
  O  O142  1  0.11831700  0.11481900  0.68012400  1
  O  O143  1  0.36881750  0.28479950  0.57727400  1
  O  O144  1  0.45986150  0.08027950  0.57692300  1
  O  O145  1  0.04059500  0.30540700  0.41323200  1
  O  O146  1  0.40707100  0.07463200  0.92762900  1
  O  O147  1  0.45545100  0.92705200  0.07361100  1
  O  O148  1  0.49185050  0.72610950  0.17988100  1
  O  O149  1  0.00814950  0.22610950  0.82011900  1
  O  O150  1  0.50000000  0.70411300  0.00000000  1
  O  O151  1  0.45940500  0.80540700  0.58676800  1
  O  O152  1  0.33286500  0.14575100  0.42445800  1
  O  O153  1  0.31100900  0.22734100  0.07890700  1
  O  O154  1  0.40811950  0.92148450  0.42809500  1
  O  O155  1  0.33573550  0.98416650  0.28056700  1
  O  O156  1  0.33173650  0.99563850  0.77865800  1
  O  O157  1  0.33218700  0.85459600  0.92940000  1
  O  O158  1  0.23585800  0.14776000  0.57301800  1
  O  O159  1  0.25735500  0.07477900  0.92226100  1
  O  O160  1  0.36925250  0.71160550  0.08335200  1
  O  O161  1  0.40141400  0.60897100  0.49474500  1
  O  O162  1  0.38168300  0.61481900  0.31987600  1
  O  O163  1  0.31028500  0.76846000  0.58209500  1
  O  O164  1  0.26132750  0.92355850  0.43279300  1
  O  O165  1  0.23260650  0.84739150  0.07661700  1
  O  O166  1  0.17663550  0.08560950  0.07985500  1
  O  O167  1  0.09498750  0.10373950  0.32714100  1
  O  O168  1  0.09858600  0.10897100  0.50525500  1
  O  O169  1  0.17196050  0.91528250  0.58550500  1
  O  O170  1  0.10453800  0.89959600  0.82679000  1
  O  O171  1  0.09985100  0.89775900  0.00247600  1
