# generated using pymatgen
data_Li3Mn5Cr2O12
_symmetry_space_group_name_H-M   'P 1'
_cell_length_a   5.09708800
_cell_length_b   9.13738800
_cell_length_c   10.07266109
_cell_angle_alpha   90.00000000
_cell_angle_beta   100.98627645
_cell_angle_gamma   90.00000000
_symmetry_Int_Tables_number   1
_chemical_formula_structural   Li3Mn5Cr2O12
_chemical_formula_sum   'Li6 Mn10 Cr4 O24'
_cell_volume   460.52711264
_cell_formula_units_Z   2
loop_
 _symmetry_equiv_pos_site_id
 _symmetry_equiv_pos_as_xyz
  1  'x, y, z'
loop_
 _atom_site_type_symbol
 _atom_site_label
 _atom_site_symmetry_multiplicity
 _atom_site_fract_x
 _atom_site_fract_y
 _atom_site_fract_z
 _atom_site_occupancy
  Li  Li0  1  0.26472100  0.58148600  0.26631900  1
  Li  Li1  1  0.73527900  0.58148600  0.73368100  1
  Li  Li2  1  0.00000000  0.91819400  0.50000000  1
  Li  Li3  1  0.76472100  0.08148600  0.26631900  1
  Li  Li4  1  0.23527900  0.08148600  0.73368100  1
  Li  Li5  1  0.50000000  0.41819400  0.50000000  1
  Mn  Mn6  1  0.50000000  0.58179400  0.00000000  1
  Mn  Mn7  1  0.50000000  0.91663400  0.00000000  1
  Mn  Mn8  1  0.00000000  0.57652200  0.50000000  1
  Mn  Mn9  1  0.24264950  0.75850950  0.73952300  1
  Mn  Mn10  1  0.75735050  0.75850950  0.26047700  1
  Mn  Mn11  1  0.00000000  0.08179400  0.00000000  1
  Mn  Mn12  1  0.00000000  0.41663400  0.00000000  1
  Mn  Mn13  1  0.50000000  0.07652200  0.50000000  1
  Mn  Mn14  1  0.74264950  0.25850950  0.73952300  1
  Mn  Mn15  1  0.25735050  0.25850950  0.26047700  1
  Cr  Cr16  1  0.50000000  0.75594600  0.50000000  1
  Cr  Cr17  1  0.00000000  0.75039400  0.00000000  1
  Cr  Cr18  1  0.00000000  0.25594600  0.50000000  1
  Cr  Cr19  1  0.50000000  0.25039400  0.00000000  1
  O  O20  1  0.62107500  0.74145700  0.88567500  1
  O  O21  1  0.85343300  0.91095000  0.10976900  1
  O  O22  1  0.37892500  0.74145700  0.11432500  1
  O  O23  1  0.63074700  0.91879600  0.39305600  1
  O  O24  1  0.36925300  0.91879600  0.60694400  1
  O  O25  1  0.35707900  0.60350500  0.61337200  1
  O  O26  1  0.14656700  0.91095000  0.89023100  1
  O  O27  1  0.13834400  0.59426600  0.89399700  1
  O  O28  1  0.12393150  0.72691050  0.38679000  1
  O  O29  1  0.86165600  0.59426600  0.10600300  1
  O  O30  1  0.64292100  0.60350500  0.38662800  1
  O  O31  1  0.87606850  0.72691050  0.61321000  1
  O  O32  1  0.12107500  0.24145700  0.88567500  1
  O  O33  1  0.35343300  0.41095000  0.10976900  1
  O  O34  1  0.87892500  0.24145700  0.11432500  1
  O  O35  1  0.13074700  0.41879600  0.39305600  1
  O  O36  1  0.86925300  0.41879600  0.60694400  1
  O  O37  1  0.85707900  0.10350500  0.61337200  1
  O  O38  1  0.64656700  0.41095000  0.89023100  1
  O  O39  1  0.63834400  0.09426600  0.89399700  1
  O  O40  1  0.62393150  0.22691050  0.38679000  1
  O  O41  1  0.36165600  0.09426600  0.10600300  1
  O  O42  1  0.14292100  0.10350500  0.38662800  1
  O  O43  1  0.37606850  0.22691050  0.61321000  1
