# generated using pymatgen
data_CaTiF5
_symmetry_space_group_name_H-M   'P 1'
_cell_length_a   9.17473200
_cell_length_b   6.68551400
_cell_length_c   7.76591910
_cell_angle_alpha   90.00000000
_cell_angle_beta   114.85198599
_cell_angle_gamma   90.00000000
_symmetry_Int_Tables_number   1
_chemical_formula_structural   CaTiF5
_chemical_formula_sum   'Ca4 Ti4 F20'
_cell_volume   432.23324082
_cell_formula_units_Z   4
loop_
 _symmetry_equiv_pos_site_id
 _symmetry_equiv_pos_as_xyz
  1  'x, y, z'
loop_
 _atom_site_type_symbol
 _atom_site_label
 _atom_site_symmetry_multiplicity
 _atom_site_fract_x
 _atom_site_fract_y
 _atom_site_fract_z
 _atom_site_occupancy
  Ca  Ca0  1  0.00000000  0.45922500  0.75000000  1
  Ca  Ca1  1  0.00000000  0.54077500  0.25000000  1
  Ca  Ca2  1  0.50000000  0.95922500  0.75000000  1
  Ca  Ca3  1  0.50000000  0.04077500  0.25000000  1
  Ti  Ti4  1  0.00000000  0.00000000  0.00000000  1
  Ti  Ti5  1  0.00000000  0.00000000  0.50000000  1
  Ti  Ti6  1  0.50000000  0.50000000  0.00000000  1
  Ti  Ti7  1  0.50000000  0.50000000  0.50000000  1
  F  F8  1  0.27157400  0.47976800  0.88178200  1
  F  F9  1  0.72842600  0.47976800  0.61821800  1
  F  F10  1  0.72842600  0.52023200  0.11821800  1
  F  F11  1  0.27157400  0.52023200  0.38178200  1
  F  F12  1  0.00000000  0.09552600  0.75000000  1
  F  F13  1  0.00000000  0.90447400  0.25000000  1
  F  F14  1  0.01097900  0.30081800  0.46914400  1
  F  F15  1  0.98902100  0.30081800  0.03085600  1
  F  F16  1  0.98902100  0.69918200  0.53085600  1
  F  F17  1  0.01097900  0.69918200  0.96914400  1
  F  F18  1  0.77157400  0.97976800  0.88178200  1
  F  F19  1  0.22842600  0.97976800  0.61821800  1
  F  F20  1  0.22842600  0.02023200  0.11821800  1
  F  F21  1  0.77157400  0.02023200  0.38178200  1
  F  F22  1  0.50000000  0.59552600  0.75000000  1
  F  F23  1  0.50000000  0.40447400  0.25000000  1
  F  F24  1  0.51097900  0.80081800  0.46914400  1
  F  F25  1  0.48902100  0.80081800  0.03085600  1
  F  F26  1  0.48902100  0.19918200  0.53085600  1
  F  F27  1  0.51097900  0.19918200  0.96914400  1
