# generated using pymatgen
data_Li17Ag12F29
_symmetry_space_group_name_H-M   'P 1'
_cell_length_a   15.42150400
_cell_length_b   15.42150400
_cell_length_c   15.42150400
_cell_angle_alpha   90.00000000
_cell_angle_beta   90.00000000
_cell_angle_gamma   90.00000000
_symmetry_Int_Tables_number   1
_chemical_formula_structural   Li17Ag12F29
_chemical_formula_sum   'Li68 Ag48 F116'
_cell_volume   3667.58503976
_cell_formula_units_Z   4
loop_
 _symmetry_equiv_pos_site_id
 _symmetry_equiv_pos_as_xyz
  1  'x, y, z'
loop_
 _atom_site_type_symbol
 _atom_site_label
 _atom_site_symmetry_multiplicity
 _atom_site_fract_x
 _atom_site_fract_y
 _atom_site_fract_z
 _atom_site_occupancy
  Li  Li0  1  0.14718000  0.35282000  0.35282000  1
  Li  Li1  1  0.17104000  0.32896000  0.17104000  1
  Li  Li2  1  0.14718000  0.14718000  0.14718000  1
  Li  Li3  1  0.35282000  0.35282000  0.14718000  1
  Li  Li4  1  0.17104000  0.17104000  0.32896000  1
  Li  Li5  1  0.32896000  0.32896000  0.32896000  1
  Li  Li6  1  0.32896000  0.17104000  0.17104000  1
  Li  Li7  1  0.35282000  0.14718000  0.35282000  1
  Li  Li8  1  0.36400700  0.13599300  0.86400700  1
  Li  Li9  1  0.63599300  0.13599300  0.13599300  1
  Li  Li10  1  0.86400700  0.36400700  0.13599300  1
  Li  Li11  1  0.50000000  0.00000000  0.00000000  1
  Li  Li12  1  0.13599300  0.36400700  0.86400700  1
  Li  Li13  1  0.14745900  0.35254100  0.64745900  1
  Li  Li14  1  0.14745900  0.14745900  0.85254100  1
  Li  Li15  1  0.35254100  0.35254100  0.85254100  1
  Li  Li16  1  0.35254100  0.14745900  0.64745900  1
  Li  Li17  1  0.14718000  0.85282000  0.85282000  1
  Li  Li18  1  0.17104000  0.82896000  0.67104000  1
  Li  Li19  1  0.14718000  0.64718000  0.64718000  1
  Li  Li20  1  0.35282000  0.85282000  0.64718000  1
  Li  Li21  1  0.17104000  0.67104000  0.82896000  1
  Li  Li22  1  0.32896000  0.82896000  0.82896000  1
  Li  Li23  1  0.32896000  0.67104000  0.67104000  1
  Li  Li24  1  0.35282000  0.64718000  0.85282000  1
  Li  Li25  1  0.36400700  0.63599300  0.36400700  1
  Li  Li26  1  0.63599300  0.63599300  0.63599300  1
  Li  Li27  1  0.86400700  0.86400700  0.63599300  1
  Li  Li28  1  0.50000000  0.50000000  0.50000000  1
  Li  Li29  1  0.13599300  0.86400700  0.36400700  1
  Li  Li30  1  0.14745900  0.85254100  0.14745900  1
  Li  Li31  1  0.14745900  0.64745900  0.35254100  1
  Li  Li32  1  0.35254100  0.85254100  0.35254100  1
  Li  Li33  1  0.35254100  0.64745900  0.14745900  1
  Li  Li34  1  0.64718000  0.35282000  0.85282000  1
  Li  Li35  1  0.67104000  0.32896000  0.67104000  1
  Li  Li36  1  0.64718000  0.14718000  0.64718000  1
  Li  Li37  1  0.85282000  0.35282000  0.64718000  1
  Li  Li38  1  0.67104000  0.17104000  0.82896000  1
  Li  Li39  1  0.82896000  0.32896000  0.82896000  1
  Li  Li40  1  0.82896000  0.17104000  0.67104000  1
  Li  Li41  1  0.85282000  0.14718000  0.85282000  1
  Li  Li42  1  0.86400700  0.13599300  0.36400700  1
  Li  Li43  1  0.13599300  0.13599300  0.63599300  1
  Li  Li44  1  0.36400700  0.36400700  0.63599300  1
  Li  Li45  1  0.00000000  0.00000000  0.50000000  1
  Li  Li46  1  0.63599300  0.36400700  0.36400700  1
  Li  Li47  1  0.64745900  0.35254100  0.14745900  1
  Li  Li48  1  0.64745900  0.14745900  0.35254100  1
  Li  Li49  1  0.85254100  0.35254100  0.35254100  1
  Li  Li50  1  0.85254100  0.14745900  0.14745900  1
  Li  Li51  1  0.64718000  0.85282000  0.35282000  1
  Li  Li52  1  0.67104000  0.82896000  0.17104000  1
  Li  Li53  1  0.64718000  0.64718000  0.14718000  1
  Li  Li54  1  0.85282000  0.85282000  0.14718000  1
  Li  Li55  1  0.67104000  0.67104000  0.32896000  1
  Li  Li56  1  0.82896000  0.82896000  0.32896000  1
  Li  Li57  1  0.82896000  0.67104000  0.17104000  1
  Li  Li58  1  0.85282000  0.64718000  0.35282000  1
  Li  Li59  1  0.86400700  0.63599300  0.86400700  1
  Li  Li60  1  0.13599300  0.63599300  0.13599300  1
  Li  Li61  1  0.36400700  0.86400700  0.13599300  1
  Li  Li62  1  0.00000000  0.50000000  0.00000000  1
  Li  Li63  1  0.63599300  0.86400700  0.86400700  1
  Li  Li64  1  0.64745900  0.85254100  0.64745900  1
  Li  Li65  1  0.64745900  0.64745900  0.85254100  1
  Li  Li66  1  0.85254100  0.85254100  0.85254100  1
  Li  Li67  1  0.85254100  0.64745900  0.64745900  1
  Ag  Ag68  1  0.50000000  0.20191000  0.00000000  1
  Ag  Ag69  1  0.29809000  0.00000000  0.00000000  1
  Ag  Ag70  1  0.50000000  0.00000000  0.79809000  1
  Ag  Ag71  1  0.50000000  0.00000000  0.20191000  1
  Ag  Ag72  1  0.70191000  0.00000000  0.00000000  1
  Ag  Ag73  1  0.00000000  0.29809000  0.00000000  1
  Ag  Ag74  1  0.25000000  0.49467600  0.75000000  1
  Ag  Ag75  1  0.00532400  0.25000000  0.75000000  1
  Ag  Ag76  1  0.25000000  0.25000000  0.99467600  1
  Ag  Ag77  1  0.25000000  0.25000000  0.50532400  1
  Ag  Ag78  1  0.49467600  0.25000000  0.75000000  1
  Ag  Ag79  1  0.25000000  0.00532400  0.75000000  1
  Ag  Ag80  1  0.50000000  0.70191000  0.50000000  1
  Ag  Ag81  1  0.29809000  0.50000000  0.50000000  1
  Ag  Ag82  1  0.50000000  0.50000000  0.29809000  1
  Ag  Ag83  1  0.50000000  0.50000000  0.70191000  1
  Ag  Ag84  1  0.70191000  0.50000000  0.50000000  1
  Ag  Ag85  1  0.00000000  0.79809000  0.50000000  1
  Ag  Ag86  1  0.25000000  0.99467600  0.25000000  1
  Ag  Ag87  1  0.00532400  0.75000000  0.25000000  1
  Ag  Ag88  1  0.25000000  0.75000000  0.49467600  1
  Ag  Ag89  1  0.25000000  0.75000000  0.00532400  1
  Ag  Ag90  1  0.49467600  0.75000000  0.25000000  1
  Ag  Ag91  1  0.25000000  0.50532400  0.25000000  1
  Ag  Ag92  1  0.00000000  0.20191000  0.50000000  1
  Ag  Ag93  1  0.79809000  0.00000000  0.50000000  1
  Ag  Ag94  1  0.00000000  0.00000000  0.29809000  1
  Ag  Ag95  1  0.00000000  0.00000000  0.70191000  1
  Ag  Ag96  1  0.20191000  0.00000000  0.50000000  1
  Ag  Ag97  1  0.50000000  0.29809000  0.50000000  1
  Ag  Ag98  1  0.75000000  0.49467600  0.25000000  1
  Ag  Ag99  1  0.50532400  0.25000000  0.25000000  1
  Ag  Ag100  1  0.75000000  0.25000000  0.49467600  1
  Ag  Ag101  1  0.75000000  0.25000000  0.00532400  1
  Ag  Ag102  1  0.99467600  0.25000000  0.25000000  1
  Ag  Ag103  1  0.75000000  0.00532400  0.25000000  1
  Ag  Ag104  1  0.00000000  0.70191000  0.00000000  1
  Ag  Ag105  1  0.79809000  0.50000000  0.00000000  1
  Ag  Ag106  1  0.00000000  0.50000000  0.79809000  1
  Ag  Ag107  1  0.00000000  0.50000000  0.20191000  1
  Ag  Ag108  1  0.20191000  0.50000000  0.00000000  1
  Ag  Ag109  1  0.50000000  0.79809000  0.00000000  1
  Ag  Ag110  1  0.75000000  0.99467600  0.75000000  1
  Ag  Ag111  1  0.50532400  0.75000000  0.75000000  1
  Ag  Ag112  1  0.75000000  0.75000000  0.99467600  1
  Ag  Ag113  1  0.75000000  0.75000000  0.50532400  1
  Ag  Ag114  1  0.99467600  0.75000000  0.75000000  1
  Ag  Ag115  1  0.75000000  0.50532400  0.75000000  1
  F  F116  1  0.25000000  0.25000000  0.25000000  1
  F  F117  1  0.39050300  0.25072800  0.89050300  1
  F  F118  1  0.24927200  0.10949700  0.89050300  1
  F  F119  1  0.39213150  0.25057100  0.10786850  1
  F  F120  1  0.24942900  0.10786850  0.10786850  1
  F  F121  1  0.39050300  0.10949700  0.74927200  1
  F  F122  1  0.39213150  0.10786850  0.25057100  1
  F  F123  1  0.60786850  0.25057100  0.89213150  1
  F  F124  1  0.74942900  0.39213150  0.89213150  1
  F  F125  1  0.60949700  0.25072800  0.10949700  1
  F  F126  1  0.74927200  0.39050300  0.10949700  1
  F  F127  1  0.43151000  0.06849000  0.93151000  1
  F  F128  1  0.60786850  0.10786850  0.74942900  1
  F  F129  1  0.89213150  0.39213150  0.74942900  1
  F  F130  1  0.56849000  0.06849000  0.06849000  1
  F  F131  1  0.93151000  0.43151000  0.06849000  1
  F  F132  1  0.60949700  0.10949700  0.25072800  1
  F  F133  1  0.89050300  0.39050300  0.25072800  1
  F  F134  1  0.06849000  0.43151000  0.93151000  1
  F  F135  1  0.75072800  0.10949700  0.10949700  1
  F  F136  1  0.89050300  0.24927200  0.10949700  1
  F  F137  1  0.89213150  0.24942900  0.89213150  1
  F  F138  1  0.75057100  0.10786850  0.89213150  1
  F  F139  1  0.10786850  0.39213150  0.25057100  1
  F  F140  1  0.10949700  0.39050300  0.74927200  1
  F  F141  1  0.10786850  0.24942900  0.10786850  1
  F  F142  1  0.25057100  0.39213150  0.10786850  1
  F  F143  1  0.25072800  0.39050300  0.89050300  1
  F  F144  1  0.10949700  0.24927200  0.89050300  1
  F  F145  1  0.25000000  0.75000000  0.75000000  1
  F  F146  1  0.39050300  0.75072800  0.39050300  1
  F  F147  1  0.24927200  0.60949700  0.39050300  1
  F  F148  1  0.39213150  0.75057100  0.60786850  1
  F  F149  1  0.24942900  0.60786850  0.60786850  1
  F  F150  1  0.39050300  0.60949700  0.24927200  1
  F  F151  1  0.39213150  0.60786850  0.75057100  1
  F  F152  1  0.60786850  0.75057100  0.39213150  1
  F  F153  1  0.74942900  0.89213150  0.39213150  1
  F  F154  1  0.60949700  0.75072800  0.60949700  1
  F  F155  1  0.74927200  0.89050300  0.60949700  1
  F  F156  1  0.43151000  0.56849000  0.43151000  1
  F  F157  1  0.60786850  0.60786850  0.24942900  1
  F  F158  1  0.89213150  0.89213150  0.24942900  1
  F  F159  1  0.56849000  0.56849000  0.56849000  1
  F  F160  1  0.93151000  0.93151000  0.56849000  1
  F  F161  1  0.60949700  0.60949700  0.75072800  1
  F  F162  1  0.89050300  0.89050300  0.75072800  1
  F  F163  1  0.06849000  0.93151000  0.43151000  1
  F  F164  1  0.75072800  0.60949700  0.60949700  1
  F  F165  1  0.89050300  0.74927200  0.60949700  1
  F  F166  1  0.89213150  0.74942900  0.39213150  1
  F  F167  1  0.75057100  0.60786850  0.39213150  1
  F  F168  1  0.10786850  0.89213150  0.75057100  1
  F  F169  1  0.10949700  0.89050300  0.24927200  1
  F  F170  1  0.10786850  0.74942900  0.60786850  1
  F  F171  1  0.25057100  0.89213150  0.60786850  1
  F  F172  1  0.25072800  0.89050300  0.39050300  1
  F  F173  1  0.10949700  0.74927200  0.39050300  1
  F  F174  1  0.75000000  0.25000000  0.75000000  1
  F  F175  1  0.89050300  0.25072800  0.39050300  1
  F  F176  1  0.74927200  0.10949700  0.39050300  1
  F  F177  1  0.89213150  0.25057100  0.60786850  1
  F  F178  1  0.74942900  0.10786850  0.60786850  1
  F  F179  1  0.89050300  0.10949700  0.24927200  1
  F  F180  1  0.89213150  0.10786850  0.75057100  1
  F  F181  1  0.10786850  0.25057100  0.39213150  1
  F  F182  1  0.24942900  0.39213150  0.39213150  1
  F  F183  1  0.10949700  0.25072800  0.60949700  1
  F  F184  1  0.24927200  0.39050300  0.60949700  1
  F  F185  1  0.93151000  0.06849000  0.43151000  1
  F  F186  1  0.10786850  0.10786850  0.24942900  1
  F  F187  1  0.39213150  0.39213150  0.24942900  1
  F  F188  1  0.06849000  0.06849000  0.56849000  1
  F  F189  1  0.43151000  0.43151000  0.56849000  1
  F  F190  1  0.10949700  0.10949700  0.75072800  1
  F  F191  1  0.39050300  0.39050300  0.75072800  1
  F  F192  1  0.56849000  0.43151000  0.43151000  1
  F  F193  1  0.25072800  0.10949700  0.60949700  1
  F  F194  1  0.39050300  0.24927200  0.60949700  1
  F  F195  1  0.39213150  0.24942900  0.39213150  1
  F  F196  1  0.25057100  0.10786850  0.39213150  1
  F  F197  1  0.60786850  0.39213150  0.75057100  1
  F  F198  1  0.60949700  0.39050300  0.24927200  1
  F  F199  1  0.60786850  0.24942900  0.60786850  1
  F  F200  1  0.75057100  0.39213150  0.60786850  1
  F  F201  1  0.75072800  0.39050300  0.39050300  1
  F  F202  1  0.60949700  0.24927200  0.39050300  1
  F  F203  1  0.75000000  0.75000000  0.25000000  1
  F  F204  1  0.89050300  0.75072800  0.89050300  1
  F  F205  1  0.74927200  0.60949700  0.89050300  1
  F  F206  1  0.89213150  0.75057100  0.10786850  1
  F  F207  1  0.74942900  0.60786850  0.10786850  1
  F  F208  1  0.89050300  0.60949700  0.74927200  1
  F  F209  1  0.89213150  0.60786850  0.25057100  1
  F  F210  1  0.10786850  0.75057100  0.89213150  1
  F  F211  1  0.24942900  0.89213150  0.89213150  1
  F  F212  1  0.10949700  0.75072800  0.10949700  1
  F  F213  1  0.24927200  0.89050300  0.10949700  1
  F  F214  1  0.93151000  0.56849000  0.93151000  1
  F  F215  1  0.10786850  0.60786850  0.74942900  1
  F  F216  1  0.39213150  0.89213150  0.74942900  1
  F  F217  1  0.06849000  0.56849000  0.06849000  1
  F  F218  1  0.43151000  0.93151000  0.06849000  1
  F  F219  1  0.10949700  0.60949700  0.25072800  1
  F  F220  1  0.39050300  0.89050300  0.25072800  1
  F  F221  1  0.56849000  0.93151000  0.93151000  1
  F  F222  1  0.25072800  0.60949700  0.10949700  1
  F  F223  1  0.39050300  0.74927200  0.10949700  1
  F  F224  1  0.39213150  0.74942900  0.89213150  1
  F  F225  1  0.25057100  0.60786850  0.89213150  1
  F  F226  1  0.60786850  0.89213150  0.25057100  1
  F  F227  1  0.60949700  0.89050300  0.74927200  1
  F  F228  1  0.60786850  0.74942900  0.10786850  1
  F  F229  1  0.75057100  0.89213150  0.10786850  1
  F  F230  1  0.75072800  0.89050300  0.89050300  1
  F  F231  1  0.60949700  0.74927200  0.89050300  1
