# generated using pymatgen
data_Rb2VAgS4
_symmetry_space_group_name_H-M   'P 1'
_cell_length_a   5.85069200
_cell_length_b   13.74097200
_cell_length_c   23.73109800
_cell_angle_alpha   90.00000000
_cell_angle_beta   90.00000000
_cell_angle_gamma   90.00000000
_symmetry_Int_Tables_number   1
_chemical_formula_structural   Rb2VAgS4
_chemical_formula_sum   'Rb16 V8 Ag8 S32'
_cell_volume   1907.84251905
_cell_formula_units_Z   8
loop_
 _symmetry_equiv_pos_site_id
 _symmetry_equiv_pos_as_xyz
  1  'x, y, z'
loop_
 _atom_site_type_symbol
 _atom_site_label
 _atom_site_symmetry_multiplicity
 _atom_site_fract_x
 _atom_site_fract_y
 _atom_site_fract_z
 _atom_site_occupancy
  Rb  Rb0  1  0.50000000  0.00000000  0.67919800  1
  Rb  Rb1  1  0.25000000  0.75000000  0.92919800  1
  Rb  Rb2  1  0.00000000  0.00000000  0.82080200  1
  Rb  Rb3  1  0.25000000  0.75000000  0.57080200  1
  Rb  Rb4  1  0.50000000  0.50000000  0.17919800  1
  Rb  Rb5  1  0.25000000  0.25000000  0.42919800  1
  Rb  Rb6  1  0.00000000  0.50000000  0.32080200  1
  Rb  Rb7  1  0.25000000  0.25000000  0.07080200  1
  Rb  Rb8  1  0.00000000  0.00000000  0.17919800  1
  Rb  Rb9  1  0.75000000  0.75000000  0.42919800  1
  Rb  Rb10  1  0.50000000  0.00000000  0.32080200  1
  Rb  Rb11  1  0.75000000  0.75000000  0.07080200  1
  Rb  Rb12  1  0.00000000  0.50000000  0.67919800  1
  Rb  Rb13  1  0.75000000  0.25000000  0.92919800  1
  Rb  Rb14  1  0.50000000  0.50000000  0.82080200  1
  Rb  Rb15  1  0.75000000  0.25000000  0.57080200  1
  V  V16  1  0.00000000  0.00000000  0.00000000  1
  V  V17  1  0.25000000  0.75000000  0.75000000  1
  V  V18  1  0.00000000  0.50000000  0.50000000  1
  V  V19  1  0.25000000  0.25000000  0.25000000  1
  V  V20  1  0.50000000  0.00000000  0.50000000  1
  V  V21  1  0.75000000  0.75000000  0.25000000  1
  V  V22  1  0.50000000  0.50000000  0.00000000  1
  V  V23  1  0.75000000  0.25000000  0.75000000  1
  Ag  Ag24  1  0.50000000  0.00000000  0.00000000  1
  Ag  Ag25  1  0.75000000  0.75000000  0.75000000  1
  Ag  Ag26  1  0.50000000  0.50000000  0.50000000  1
  Ag  Ag27  1  0.75000000  0.25000000  0.25000000  1
  Ag  Ag28  1  0.00000000  0.00000000  0.50000000  1
  Ag  Ag29  1  0.25000000  0.75000000  0.25000000  1
  Ag  Ag30  1  0.00000000  0.50000000  0.00000000  1
  Ag  Ag31  1  0.25000000  0.25000000  0.75000000  1
  S  S32  1  0.70282100  0.90467150  0.55424750  1
  S  S33  1  0.79717900  0.59532850  0.55424750  1
  S  S34  1  0.79717900  0.90467150  0.94575250  1
  S  S35  1  0.70282100  0.59532850  0.94575250  1
  S  S36  1  0.45282100  0.84532850  0.80424750  1
  S  S37  1  0.04717900  0.65467150  0.80424750  1
  S  S38  1  0.45282100  0.65467150  0.69575250  1
  S  S39  1  0.04717900  0.84532850  0.69575250  1
  S  S40  1  0.70282100  0.40467150  0.05424750  1
  S  S41  1  0.79717900  0.09532850  0.05424750  1
  S  S42  1  0.79717900  0.40467150  0.44575250  1
  S  S43  1  0.70282100  0.09532850  0.44575250  1
  S  S44  1  0.45282100  0.34532850  0.30424750  1
  S  S45  1  0.04717900  0.15467150  0.30424750  1
  S  S46  1  0.45282100  0.15467150  0.19575250  1
  S  S47  1  0.04717900  0.34532850  0.19575250  1
  S  S48  1  0.20282100  0.90467150  0.05424750  1
  S  S49  1  0.29717900  0.59532850  0.05424750  1
  S  S50  1  0.29717900  0.90467150  0.44575250  1
  S  S51  1  0.20282100  0.59532850  0.44575250  1
  S  S52  1  0.95282100  0.84532850  0.30424750  1
  S  S53  1  0.54717900  0.65467150  0.30424750  1
  S  S54  1  0.95282100  0.65467150  0.19575250  1
  S  S55  1  0.54717900  0.84532850  0.19575250  1
  S  S56  1  0.20282100  0.40467150  0.55424750  1
  S  S57  1  0.29717900  0.09532850  0.55424750  1
  S  S58  1  0.29717900  0.40467150  0.94575250  1
  S  S59  1  0.20282100  0.09532850  0.94575250  1
  S  S60  1  0.95282100  0.34532850  0.80424750  1
  S  S61  1  0.54717900  0.15467150  0.80424750  1
  S  S62  1  0.95282100  0.15467150  0.69575250  1
  S  S63  1  0.54717900  0.34532850  0.69575250  1
