# generated using pymatgen
data_Li2Mn5(CuO6)2
_symmetry_space_group_name_H-M   'P 1'
_cell_length_a   5.37320549
_cell_length_b   8.76543311
_cell_length_c   9.73039045
_cell_angle_alpha   90.00000000
_cell_angle_beta   98.11039652
_cell_angle_gamma   90.00000000
_symmetry_Int_Tables_number   1
_chemical_formula_structural   Li2Mn5(CuO6)2
_chemical_formula_sum   'Li4 Mn10 Cu4 O24'
_cell_volume   453.70278701
_cell_formula_units_Z   2
loop_
 _symmetry_equiv_pos_site_id
 _symmetry_equiv_pos_as_xyz
  1  'x, y, z'
loop_
 _atom_site_type_symbol
 _atom_site_label
 _atom_site_symmetry_multiplicity
 _atom_site_fract_x
 _atom_site_fract_y
 _atom_site_fract_z
 _atom_site_occupancy
  Li  Li0  1  0.47066600  0.90553000  0.73432500  1
  Li  Li1  1  0.74713200  0.57913400  0.50751600  1
  Li  Li2  1  0.52933400  0.40553000  0.26567500  1
  Li  Li3  1  0.25286800  0.07913400  0.49248400  1
  Mn  Mn4  1  0.24621200  0.92451400  0.00176400  1
  Mn  Mn5  1  0.75564800  0.91428700  0.50018100  1
  Mn  Mn6  1  0.99719100  0.74335700  0.74432600  1
  Mn  Mn7  1  0.25756500  0.58702400  0.00019700  1
  Mn  Mn8  1  0.50806500  0.75351200  0.25683600  1
  Mn  Mn9  1  0.24435200  0.41428700  0.49981900  1
  Mn  Mn10  1  0.75378800  0.42451400  0.99823600  1
  Mn  Mn11  1  0.00280900  0.24335700  0.25567400  1
  Mn  Mn12  1  0.49193500  0.25351200  0.74316400  1
  Mn  Mn13  1  0.74243500  0.08702400  0.99980300  1
  Cu  Cu14  1  0.24758200  0.73964000  0.49323200  1
  Cu  Cu15  1  0.75836200  0.75333200  0.00904200  1
  Cu  Cu16  1  0.24163800  0.25333200  0.99095800  1
  Cu  Cu17  1  0.75241800  0.23964000  0.50676800  1
  O  O18  1  0.11038700  0.88905300  0.60255800  1
  O  O19  1  0.90023100  0.91438000  0.90099200  1
  O  O20  1  0.18837700  0.75076400  0.12626100  1
  O  O21  1  0.59057700  0.91949100  0.09954200  1
  O  O22  1  0.82145800  0.76176000  0.37190000  1
  O  O23  1  0.40890200  0.89455500  0.40073400  1
  O  O24  1  0.12168200  0.58785100  0.59906300  1
  O  O25  1  0.67673500  0.76686400  0.63470500  1
  O  O26  1  0.91483600  0.59880700  0.89848700  1
  O  O27  1  0.32032100  0.75777000  0.86633900  1
  O  O28  1  0.09976900  0.41438000  0.09900800  1
  O  O29  1  0.59551900  0.59069600  0.11246300  1
  O  O30  1  0.88961300  0.38905300  0.39744200  1
  O  O31  1  0.37537700  0.58234500  0.39094600  1
  O  O32  1  0.17854200  0.26176000  0.62810000  1
  O  O33  1  0.59109800  0.39455500  0.59926600  1
  O  O34  1  0.81162300  0.25076400  0.87373900  1
  O  O35  1  0.40942300  0.41949100  0.90045800  1
  O  O36  1  0.08516400  0.09880700  0.10151300  1
  O  O37  1  0.67967900  0.25777000  0.13366100  1
  O  O38  1  0.87831800  0.08785100  0.40093700  1
  O  O39  1  0.32326500  0.26686400  0.36529500  1
  O  O40  1  0.62462300  0.08234500  0.60905400  1
  O  O41  1  0.40448100  0.09069600  0.88753700  1
