# generated using pymatgen
data_Ga2O3
_symmetry_space_group_name_H-M   'P 1'
_cell_length_a   12.45244600
_cell_length_b   3.08296800
_cell_length_c   5.87615358
_cell_angle_alpha   90.00000000
_cell_angle_beta   103.68359837
_cell_angle_gamma   90.00000000
_symmetry_Int_Tables_number   1
_chemical_formula_structural   Ga2O3
_chemical_formula_sum   'Ga8 O12'
_cell_volume   219.18552639
_cell_formula_units_Z   4
loop_
 _symmetry_equiv_pos_site_id
 _symmetry_equiv_pos_as_xyz
  1  'x, y, z'
loop_
 _atom_site_type_symbol
 _atom_site_label
 _atom_site_symmetry_multiplicity
 _atom_site_fract_x
 _atom_site_fract_y
 _atom_site_fract_z
 _atom_site_occupancy
  Ga  Ga0  1  0.15841000  0.50000000  0.31408200  1
  Ga  Ga1  1  0.34159000  0.00000000  0.68591800  1
  Ga  Ga2  1  0.08987800  0.00000000  0.79476100  1
  Ga  Ga3  1  0.41012200  0.50000000  0.20523900  1
  Ga  Ga4  1  0.65841000  0.00000000  0.31408200  1
  Ga  Ga5  1  0.84159000  0.50000000  0.68591800  1
  Ga  Ga6  1  0.58987800  0.50000000  0.79476100  1
  Ga  Ga7  1  0.91012200  0.00000000  0.20523900  1
  O  O8  1  0.49589700  0.00000000  0.25649100  1
  O  O9  1  0.00410300  0.50000000  0.74350900  1
  O  O10  1  0.17359800  0.00000000  0.56429400  1
  O  O11  1  0.32640200  0.50000000  0.43570600  1
  O  O12  1  0.33649700  0.50000000  0.89104700  1
  O  O13  1  0.16350300  0.00000000  0.10895300  1
  O  O14  1  0.99589700  0.50000000  0.25649100  1
  O  O15  1  0.50410300  0.00000000  0.74350900  1
  O  O16  1  0.67359800  0.50000000  0.56429400  1
  O  O17  1  0.82640200  0.00000000  0.43570600  1
  O  O18  1  0.83649700  0.00000000  0.89104700  1
  O  O19  1  0.66350300  0.50000000  0.10895300  1
