# generated using pymatgen
data_V4(OF3)3
_symmetry_space_group_name_H-M   'P 1'
_cell_length_a   5.26727700
_cell_length_b   5.37148362
_cell_length_c   17.35462389
_cell_angle_alpha   87.66409297
_cell_angle_beta   98.70234580
_cell_angle_gamma   118.92401250
_symmetry_Int_Tables_number   1
_chemical_formula_structural   V4(OF3)3
_chemical_formula_sum   'V8 O6 F18'
_cell_volume   424.52162697
_cell_formula_units_Z   2
loop_
 _symmetry_equiv_pos_site_id
 _symmetry_equiv_pos_as_xyz
  1  'x, y, z'
loop_
 _atom_site_type_symbol
 _atom_site_label
 _atom_site_symmetry_multiplicity
 _atom_site_fract_x
 _atom_site_fract_y
 _atom_site_fract_z
 _atom_site_occupancy
  V  V0  1  0.25107900  0.63117900  0.87472900  1
  V  V1  1  0.24989200  0.11976400  0.37523300  1
  V  V2  1  0.50159400  0.23162200  0.75356000  1
  V  V3  1  0.50252600  0.71886000  0.25292700  1
  V  V4  1  0.73230200  0.84976500  0.63016200  1
  V  V5  1  0.73393500  0.39219400  0.12744600  1
  V  V6  1  0.99759400  0.03085800  0.99617300  1
  V  V7  1  0.99841500  0.51738300  0.49662100  1
  O  O8  1  0.04007100  0.30620400  0.93977500  1
  O  O9  1  0.03757800  0.79078500  0.43996300  1
  O  O10  1  0.45805100  0.95119800  0.80908100  1
  O  O11  1  0.55388200  0.57609300  0.68702100  1
  O  O12  1  0.46310800  0.44854200  0.31072000  1
  O  O13  1  0.59184500  0.57535700  0.16437600  1
  F  F14  1  0.06875400  0.83358200  0.91437700  1
  F  F15  1  0.07956000  0.06094600  0.70964500  1
  F  F16  1  0.06851500  0.32082700  0.41489100  1
  F  F17  1  0.08043700  0.53779300  0.20952300  1
  F  F18  1  0.58006600  0.79336600  0.96511400  1
  F  F19  1  0.43247400  0.42535300  0.83584800  1
  F  F20  1  0.42824800  0.91907600  0.33443700  1
  F  F21  1  0.42600700  0.69963300  0.53797100  1
  F  F22  1  0.57164500  0.09008700  0.66023500  1
  F  F23  1  0.57122100  0.28154900  0.46315100  1
  F  F24  1  0.42291900  0.20459700  0.03858200  1
  F  F25  1  0.93623800  0.67087800  0.58892300  1
  F  F26  1  0.92096200  0.46103200  0.78538000  1
  F  F27  1  0.92749900  0.96393900  0.28738900  1
  F  F28  1  0.53545700  0.05133000  0.18722900  1
  F  F29  1  0.96706300  0.69320300  0.05982400  1
  F  F30  1  0.95303100  0.18336300  0.56235600  1
  F  F31  1  0.91803200  0.16964400  0.08734000  1
