# generated using pymatgen
data_GaGeTe
_symmetry_space_group_name_H-M   'P 1'
_cell_length_a   4.12640571
_cell_length_b   4.12640571
_cell_length_c   36.56014781
_cell_angle_alpha   90.00000000
_cell_angle_beta   90.00000000
_cell_angle_gamma   120.00000000
_symmetry_Int_Tables_number   1
_chemical_formula_structural   GaGeTe
_chemical_formula_sum   'Ga6 Ge6 Te6'
_cell_volume   539.11625352
_cell_formula_units_Z   6
loop_
 _symmetry_equiv_pos_site_id
 _symmetry_equiv_pos_as_xyz
  1  'x, y, z'
loop_
 _atom_site_type_symbol
 _atom_site_label
 _atom_site_symmetry_multiplicity
 _atom_site_fract_x
 _atom_site_fract_y
 _atom_site_fract_z
 _atom_site_occupancy
  Ga  Ga0  1  0.00000000  0.00000000  0.25471900  1
  Ga  Ga1  1  0.66666667  0.33333333  0.07861433  1
  Ga  Ga2  1  0.66666667  0.33333333  0.58805233  1
  Ga  Ga3  1  0.33333333  0.66666667  0.41194767  1
  Ga  Ga4  1  0.33333333  0.66666667  0.92138567  1
  Ga  Ga5  1  0.00000000  0.00000000  0.74528100  1
  Ge  Ge6  1  0.00000000  0.00000000  0.32234500  1
  Ge  Ge7  1  0.66666667  0.33333333  0.01098833  1
  Ge  Ge8  1  0.66666667  0.33333333  0.65567833  1
  Ge  Ge9  1  0.33333333  0.66666667  0.34432167  1
  Ge  Ge10  1  0.33333333  0.66666667  0.98901167  1
  Ge  Ge11  1  0.00000000  0.00000000  0.67765500  1
  Te  Te12  1  0.00000000  0.00000000  0.11336300  1
  Te  Te13  1  0.66666667  0.33333333  0.21997033  1
  Te  Te14  1  0.66666667  0.33333333  0.44669633  1
  Te  Te15  1  0.33333333  0.66666667  0.55330367  1
  Te  Te16  1  0.33333333  0.66666667  0.78002967  1
  Te  Te17  1  0.00000000  0.00000000  0.88663700  1
