# generated using pymatgen
data_CaPtF6
_symmetry_space_group_name_H-M   'P 1'
_cell_length_a   5.43103827
_cell_length_b   5.43103827
_cell_length_c   14.88393078
_cell_angle_alpha   90.00000000
_cell_angle_beta   90.00000000
_cell_angle_gamma   120.00000000
_symmetry_Int_Tables_number   1
_chemical_formula_structural   CaPtF6
_chemical_formula_sum   'Ca3 Pt3 F18'
_cell_volume   380.20165189
_cell_formula_units_Z   3
loop_
 _symmetry_equiv_pos_site_id
 _symmetry_equiv_pos_as_xyz
  1  'x, y, z'
loop_
 _atom_site_type_symbol
 _atom_site_label
 _atom_site_symmetry_multiplicity
 _atom_site_fract_x
 _atom_site_fract_y
 _atom_site_fract_z
 _atom_site_occupancy
  Ca  Ca0  1  0.33333333  0.66666667  0.16666667  1
  Ca  Ca1  1  1.00000000  0.00000000  0.50000000  1
  Ca  Ca2  1  0.66666667  0.33333333  0.83333333  1
  Pt  Pt3  1  0.00000000  0.00000000  0.00000000  1
  Pt  Pt4  1  0.66666667  0.33333333  0.33333333  1
  Pt  Pt5  1  0.33333333  0.66666667  0.66666667  1
  F  F6  1  0.96860200  0.34950400  0.25585600  1
  F  F7  1  0.38090200  0.03139800  0.25585600  1
  F  F8  1  0.01617067  0.71423533  0.07747733  1
  F  F9  1  0.28576467  0.30193533  0.07747733  1
  F  F10  1  0.69806467  0.98382933  0.07747733  1
  F  F11  1  0.65049600  0.61909800  0.25585600  1
  F  F12  1  0.63526867  0.68283733  0.58918933  1
  F  F13  1  0.04756867  0.36473133  0.58918933  1
  F  F14  1  0.68283733  0.04756867  0.41081067  1
  F  F15  1  0.95243133  0.63526867  0.41081067  1
  F  F16  1  0.36473133  0.31716267  0.41081067  1
  F  F17  1  0.31716267  0.95243133  0.58918933  1
  F  F18  1  0.30193533  0.01617067  0.92252267  1
  F  F19  1  0.71423533  0.69806467  0.92252267  1
  F  F20  1  0.34950400  0.38090200  0.74414400  1
  F  F21  1  0.61909800  0.96860200  0.74414400  1
  F  F22  1  0.03139800  0.65049600  0.74414400  1
  F  F23  1  0.98382933  0.28576467  0.92252267  1
