# generated using pymatgen
data_LiSn3Sb(PO4)6
_symmetry_space_group_name_H-M   'P 1'
_cell_length_a   8.74378968
_cell_length_b   8.74378968
_cell_length_c   22.26569996
_cell_angle_alpha   90.00000000
_cell_angle_beta   90.00000000
_cell_angle_gamma   120.00000000
_symmetry_Int_Tables_number   1
_chemical_formula_structural   LiSn3Sb(PO4)6
_chemical_formula_sum   'Li3 Sn9 Sb3 P18 O72'
_cell_volume   1474.23388756
_cell_formula_units_Z   3
loop_
 _symmetry_equiv_pos_site_id
 _symmetry_equiv_pos_as_xyz
  1  'x, y, z'
loop_
 _atom_site_type_symbol
 _atom_site_label
 _atom_site_symmetry_multiplicity
 _atom_site_fract_x
 _atom_site_fract_y
 _atom_site_fract_z
 _atom_site_occupancy
  Li  Li0  1  0.00000000  0.00000000  0.00235500  1
  Li  Li1  1  0.66666667  0.33333333  0.33568833  1
  Li  Li2  1  0.33333333  0.66666667  0.66902167  1
  Sn  Sn3  1  0.00000000  0.00000000  0.14607000  1
  Sn  Sn4  1  0.33333333  0.66666667  0.02393267  1
  Sn  Sn5  1  0.33333333  0.66666667  0.30857967  1
  Sn  Sn6  1  0.66666667  0.33333333  0.47940333  1
  Sn  Sn7  1  0.00000000  0.00000000  0.35726600  1
  Sn  Sn8  1  0.00000000  0.00000000  0.64191300  1
  Sn  Sn9  1  0.33333333  0.66666667  0.81273667  1
  Sn  Sn10  1  0.66666667  0.33333333  0.69059933  1
  Sn  Sn11  1  0.66666667  0.33333333  0.97524633  1
  Sb  Sb12  1  0.66666667  0.33333333  0.18706533  1
  Sb  Sb13  1  0.33333333  0.66666667  0.52039867  1
  Sb  Sb14  1  0.00000000  0.00000000  0.85373200  1
  P  P15  1  0.66867400  0.62420100  0.08230900  1
  P  P16  1  0.95552700  0.33132600  0.08230900  1
  P  P17  1  0.37579900  0.04447300  0.08230900  1
  P  P18  1  0.29478533  0.28943967  0.25019967  1
  P  P19  1  0.71056033  0.00534567  0.25019967  1
  P  P20  1  0.99465433  0.70521467  0.25019967  1
  P  P21  1  0.33534067  0.95753433  0.41564233  1
  P  P22  1  0.62219367  0.66465933  0.41564233  1
  P  P23  1  0.04246567  0.37780633  0.41564233  1
  P  P24  1  0.96145200  0.62277300  0.58353300  1
  P  P25  1  0.37722700  0.33867900  0.58353300  1
  P  P26  1  0.66132100  0.03854800  0.58353300  1
  P  P27  1  0.00200733  0.29086767  0.74897567  1
  P  P28  1  0.28886033  0.99799267  0.74897567  1
  P  P29  1  0.70913233  0.71113967  0.74897567  1
  P  P30  1  0.62811867  0.95610633  0.91686633  1
  P  P31  1  0.04389367  0.67201233  0.91686633  1
  P  P32  1  0.32798767  0.37188133  0.91686633  1
  O  O33  1  0.96169767  0.78635133  0.30638733  1
  O  O34  1  0.21364867  0.17534633  0.30638733  1
  O  O35  1  0.83596300  0.80967400  0.08523900  1
  O  O36  1  0.82465367  0.03830233  0.30638733  1
  O  O37  1  0.50111767  0.63699733  0.07967633  1
  O  O38  1  0.64642733  0.51638567  0.14141167  1
  O  O39  1  0.97371100  0.16403700  0.08523900  1
  O  O40  1  0.13587967  0.49888233  0.07967633  1
  O  O41  1  0.36300267  0.86412033  0.07967633  1
  O  O42  1  0.19220567  0.20663233  0.19229633  1
  O  O43  1  0.48477667  0.30924433  0.24695033  1
  O  O44  1  0.79336767  0.98557333  0.19229633  1
  O  O45  1  0.86995833  0.35357267  0.14141167  1
  O  O46  1  0.19032600  0.02628900  0.08523900  1
  O  O47  1  0.48361433  0.13004167  0.14141167  1
  O  O48  1  0.31775700  0.47357300  0.25459200  1
  O  O49  1  0.52642700  0.84418400  0.25459200  1
  O  O50  1  0.69075567  0.17553233  0.24695033  1
  O  O51  1  0.01442667  0.80779433  0.19229633  1
  O  O52  1  0.15581600  0.68224300  0.25459200  1
  O  O53  1  0.84140767  0.30381833  0.02716033  1
  O  O54  1  0.82446767  0.51522333  0.24695033  1
  O  O55  1  0.46241067  0.15859233  0.02716033  1
  O  O56  1  0.69618167  0.53758933  0.02716033  1
  O  O57  1  0.62836433  0.11968467  0.63972067  1
  O  O58  1  0.88031533  0.50867967  0.63972067  1
  O  O59  1  0.50262967  0.14300733  0.41857233  1
  O  O60  1  0.49132033  0.37163567  0.63972067  1
  O  O61  1  0.16778433  0.97033067  0.41300967  1
  O  O62  1  0.31309400  0.84971900  0.47474500  1
  O  O63  1  0.64037767  0.49737033  0.41857233  1
  O  O64  1  0.80254633  0.83221567  0.41300967  1
  O  O65  1  0.02966933  0.19745367  0.41300967  1
  O  O66  1  0.85887233  0.53996567  0.52562967  1
  O  O67  1  0.15144333  0.64257767  0.58028367  1
  O  O68  1  0.46003433  0.31890667  0.52562967  1
  O  O69  1  0.53662500  0.68690600  0.47474500  1
  O  O70  1  0.85699267  0.35962233  0.41857233  1
  O  O71  1  0.15028100  0.46337500  0.47474500  1
  O  O72  1  0.98442367  0.80690633  0.58792533  1
  O  O73  1  0.19309367  0.17751733  0.58792533  1
  O  O74  1  0.35742233  0.50886567  0.58028367  1
  O  O75  1  0.68109333  0.14112767  0.52562967  1
  O  O76  1  0.82248267  0.01557633  0.58792533  1
  O  O77  1  0.50807433  0.63715167  0.36049367  1
  O  O78  1  0.49113433  0.84855667  0.58028367  1
  O  O79  1  0.12907733  0.49192567  0.36049367  1
  O  O80  1  0.36284833  0.87092267  0.36049367  1
  O  O81  1  0.29503100  0.45301800  0.97305400  1
  O  O82  1  0.54698200  0.84201300  0.97305400  1
  O  O83  1  0.16929633  0.47634067  0.75190567  1
  O  O84  1  0.15798700  0.70496900  0.97305400  1
  O  O85  1  0.83445100  0.30366400  0.74634300  1
  O  O86  1  0.97976067  0.18305233  0.80807833  1
  O  O87  1  0.30704433  0.83070367  0.75190567  1
  O  O88  1  0.46921300  0.16554900  0.74634300  1
  O  O89  1  0.69633600  0.53078700  0.74634300  1
  O  O90  1  0.52553900  0.87329900  0.85896300  1
  O  O91  1  0.81811000  0.97591100  0.91361700  1
  O  O92  1  0.12670100  0.65224000  0.85896300  1
  O  O93  1  0.20329167  0.02023933  0.80807833  1
  O  O94  1  0.52365933  0.69295567  0.75190567  1
  O  O95  1  0.81694767  0.79670833  0.80807833  1
  O  O96  1  0.65109033  0.14023967  0.92125867  1
  O  O97  1  0.85976033  0.51085067  0.92125867  1
  O  O98  1  0.02408900  0.84219900  0.91361700  1
  O  O99  1  0.34776000  0.47446100  0.85896300  1
  O  O100  1  0.48914933  0.34890967  0.92125867  1
  O  O101  1  0.17474100  0.97048500  0.69382700  1
  O  O102  1  0.15780100  0.18189000  0.91361700  1
  O  O103  1  0.79574400  0.82525900  0.69382700  1
  O  O104  1  0.02951500  0.20425600  0.69382700  1
