# generated using pymatgen
data_Na7Cr2O6
_symmetry_space_group_name_H-M   'P 1'
_cell_length_a   15.05442800
_cell_length_b   5.84670200
_cell_length_c   10.61940105
_cell_angle_alpha   90.00000000
_cell_angle_beta   105.03139829
_cell_angle_gamma   90.00000000
_symmetry_Int_Tables_number   1
_chemical_formula_structural   Na7Cr2O6
_chemical_formula_sum   'Na28 Cr8 O24'
_cell_volume   902.72439293
_cell_formula_units_Z   4
loop_
 _symmetry_equiv_pos_site_id
 _symmetry_equiv_pos_as_xyz
  1  'x, y, z'
loop_
 _atom_site_type_symbol
 _atom_site_label
 _atom_site_symmetry_multiplicity
 _atom_site_fract_x
 _atom_site_fract_y
 _atom_site_fract_z
 _atom_site_occupancy
  Na  Na0  1  0.94069150  0.64107050  0.85080500  1
  Na  Na1  1  0.83206350  0.41046750  0.59464800  1
  Na  Na2  1  0.94069150  0.35892950  0.35080500  1
  Na  Na3  1  0.77399450  0.96065850  0.69097500  1
  Na  Na4  1  0.83206350  0.58953250  0.09464800  1
  Na  Na5  1  0.72600550  0.46065850  0.80902500  1
  Na  Na6  1  0.77399450  0.03934150  0.19097500  1
  Na  Na7  1  0.66793650  0.91046750  0.90535200  1
  Na  Na8  1  0.72600550  0.53934150  0.30902500  1
  Na  Na9  1  0.55930850  0.14107050  0.64919500  1
  Na  Na10  1  0.66793650  0.08953250  0.40535200  1
  Na  Na11  1  0.00000000  0.07415400  0.75000000  1
  Na  Na12  1  0.55930850  0.85892950  0.14919500  1
  Na  Na13  1  0.00000000  0.92584600  0.25000000  1
  Na  Na14  1  0.44069150  0.14107050  0.85080500  1
  Na  Na15  1  0.33206350  0.91046750  0.59464800  1
  Na  Na16  1  0.44069150  0.85892950  0.35080500  1
  Na  Na17  1  0.27399450  0.46065850  0.69097500  1
  Na  Na18  1  0.33206350  0.08953250  0.09464800  1
  Na  Na19  1  0.22600550  0.96065850  0.80902500  1
  Na  Na20  1  0.27399450  0.53934150  0.19097500  1
  Na  Na21  1  0.16793650  0.41046750  0.90535200  1
  Na  Na22  1  0.22600550  0.03934150  0.30902500  1
  Na  Na23  1  0.05930850  0.64107050  0.64919500  1
  Na  Na24  1  0.16793650  0.58953250  0.40535200  1
  Na  Na25  1  0.50000000  0.57415400  0.75000000  1
  Na  Na26  1  0.05930850  0.35892950  0.14919500  1
  Na  Na27  1  0.50000000  0.42584600  0.25000000  1
  Cr  Cr28  1  0.88116500  0.10730200  0.96021300  1
  Cr  Cr29  1  0.88116500  0.89269800  0.46021300  1
  Cr  Cr30  1  0.61883500  0.60730200  0.53978700  1
  Cr  Cr31  1  0.61883500  0.39269800  0.03978700  1
  Cr  Cr32  1  0.38116500  0.60730200  0.96021300  1
  Cr  Cr33  1  0.38116500  0.39269800  0.46021300  1
  Cr  Cr34  1  0.11883500  0.10730200  0.53978700  1
  Cr  Cr35  1  0.11883500  0.89269800  0.03978700  1
  O  O36  1  0.90287500  0.76914800  0.62461100  1
  O  O37  1  0.87747150  0.27697150  0.81347600  1
  O  O38  1  0.90287500  0.23085200  0.12461100  1
  O  O39  1  0.82450700  0.83086000  0.91986300  1
  O  O40  1  0.87747150  0.72302850  0.31347600  1
  O  O41  1  0.67549300  0.33086000  0.58013700  1
  O  O42  1  0.82450700  0.16914000  0.41986300  1
  O  O43  1  0.62252850  0.77697150  0.68652400  1
  O  O44  1  0.67549300  0.66914000  0.08013700  1
  O  O45  1  0.59712500  0.26914800  0.87538900  1
  O  O46  1  0.62252850  0.22302850  0.18652400  1
  O  O47  1  0.59712500  0.73085200  0.37538900  1
  O  O48  1  0.40287500  0.26914800  0.62461100  1
  O  O49  1  0.37747150  0.77697150  0.81347600  1
  O  O50  1  0.40287500  0.73085200  0.12461100  1
  O  O51  1  0.32450700  0.33086000  0.91986300  1
  O  O52  1  0.37747150  0.22302850  0.31347600  1
  O  O53  1  0.17549300  0.83086000  0.58013700  1
  O  O54  1  0.32450700  0.66914000  0.41986300  1
  O  O55  1  0.12252850  0.27697150  0.68652400  1
  O  O56  1  0.17549300  0.16914000  0.08013700  1
  O  O57  1  0.09712500  0.76914800  0.87538900  1
  O  O58  1  0.12252850  0.72302850  0.18652400  1
  O  O59  1  0.09712500  0.23085200  0.37538900  1
