# generated using pymatgen
data_Ba3Dy4O9
_symmetry_space_group_name_H-M   'P 1'
_cell_length_a   6.15112977
_cell_length_b   6.15112977
_cell_length_c   25.65894213
_cell_angle_alpha   90.00000000
_cell_angle_beta   90.00000000
_cell_angle_gamma   120.00000000
_symmetry_Int_Tables_number   1
_chemical_formula_structural   Ba3Dy4O9
_chemical_formula_sum   'Ba9 Dy12 O27'
_cell_volume   840.77377684
_cell_formula_units_Z   3
loop_
 _symmetry_equiv_pos_site_id
 _symmetry_equiv_pos_as_xyz
  1  'x, y, z'
loop_
 _atom_site_type_symbol
 _atom_site_label
 _atom_site_symmetry_multiplicity
 _atom_site_fract_x
 _atom_site_fract_y
 _atom_site_fract_z
 _atom_site_occupancy
  Ba  Ba0  1  0.00000000  0.00000000  0.00260300  1
  Ba  Ba1  1  0.66666667  0.33333333  0.16976633  1
  Ba  Ba2  1  0.33333333  0.66666667  0.09125667  1
  Ba  Ba3  1  0.66666667  0.33333333  0.33593633  1
  Ba  Ba4  1  0.33333333  0.66666667  0.50309967  1
  Ba  Ba5  1  0.00000000  0.00000000  0.42459000  1
  Ba  Ba6  1  0.33333333  0.66666667  0.66926967  1
  Ba  Ba7  1  0.00000000  0.00000000  0.83643300  1
  Ba  Ba8  1  0.66666667  0.33333333  0.75792333  1
  Dy  Dy9  1  0.33333333  0.66666667  0.24227867  1
  Dy  Dy10  1  0.00000000  0.00000000  0.13728300  1
  Dy  Dy11  1  0.00000000  0.00000000  0.26317100  1
  Dy  Dy12  1  0.66666667  0.33333333  0.03419933  1
  Dy  Dy13  1  0.00000000  0.00000000  0.57561200  1
  Dy  Dy14  1  0.66666667  0.33333333  0.47061633  1
  Dy  Dy15  1  0.66666667  0.33333333  0.59650433  1
  Dy  Dy16  1  0.33333333  0.66666667  0.36753267  1
  Dy  Dy17  1  0.66666667  0.33333333  0.90894533  1
  Dy  Dy18  1  0.33333333  0.66666667  0.80394967  1
  Dy  Dy19  1  0.33333333  0.66666667  0.92983767  1
  Dy  Dy20  1  0.00000000  0.00000000  0.70086600  1
  O  O21  1  0.10851367  0.75973633  0.30767233  1
  O  O22  1  0.65122267  0.89148633  0.30767233  1
  O  O23  1  0.24026367  0.34877733  0.30767233  1
  O  O24  1  0.10289400  0.78176200  0.19551100  1
  O  O25  1  0.67886800  0.89710600  0.19551100  1
  O  O26  1  0.21823800  0.32113200  0.19551100  1
  O  O27  1  0.33467633  0.10368667  0.08593067  1
  O  O28  1  0.89631333  0.23098967  0.08593067  1
  O  O29  1  0.76901033  0.66532367  0.08593067  1
  O  O30  1  0.77518033  0.09306967  0.64100567  1
  O  O31  1  0.31788933  0.22481967  0.64100567  1
  O  O32  1  0.90693033  0.68211067  0.64100567  1
  O  O33  1  0.76956067  0.11509533  0.52884433  1
  O  O34  1  0.34553467  0.23043933  0.52884433  1
  O  O35  1  0.88490467  0.65446533  0.52884433  1
  O  O36  1  0.00134300  0.43702000  0.41926400  1
  O  O37  1  0.56298000  0.56432300  0.41926400  1
  O  O38  1  0.43567700  0.99865700  0.41926400  1
  O  O39  1  0.44184700  0.42640300  0.97433900  1
  O  O40  1  0.98455600  0.55815300  0.97433900  1
  O  O41  1  0.57359700  0.01544400  0.97433900  1
  O  O42  1  0.43622733  0.44842867  0.86217767  1
  O  O43  1  0.01220133  0.56377267  0.86217767  1
  O  O44  1  0.55157133  0.98779867  0.86217767  1
  O  O45  1  0.66800967  0.77035333  0.75259733  1
  O  O46  1  0.22964667  0.89765633  0.75259733  1
  O  O47  1  0.10234367  0.33199033  0.75259733  1
