# generated using pymatgen
data_CaSnS3
_symmetry_space_group_name_H-M   'P 1'
_cell_length_a   3.84345600
_cell_length_b   8.30690800
_cell_length_c   13.79083400
_cell_angle_alpha   90.00000000
_cell_angle_beta   90.00000000
_cell_angle_gamma   90.00000000
_symmetry_Int_Tables_number   1
_chemical_formula_structural   CaSnS3
_chemical_formula_sum   'Ca4 Sn4 S12'
_cell_volume   440.30320340
_cell_formula_units_Z   4
loop_
 _symmetry_equiv_pos_site_id
 _symmetry_equiv_pos_as_xyz
  1  'x, y, z'
loop_
 _atom_site_type_symbol
 _atom_site_label
 _atom_site_symmetry_multiplicity
 _atom_site_fract_x
 _atom_site_fract_y
 _atom_site_fract_z
 _atom_site_occupancy
  Ca  Ca0  1  0.25000000  0.56185700  0.68109300  1
  Ca  Ca1  1  0.25000000  0.06185700  0.81890700  1
  Ca  Ca2  1  0.75000000  0.43814300  0.31890700  1
  Ca  Ca3  1  0.75000000  0.93814300  0.18109300  1
  Sn  Sn4  1  0.25000000  0.82143400  0.44434900  1
  Sn  Sn5  1  0.25000000  0.32143400  0.05565100  1
  Sn  Sn6  1  0.75000000  0.17856600  0.55565100  1
  Sn  Sn7  1  0.75000000  0.67856600  0.94434900  1
  S  S8  1  0.25000000  0.98234200  0.60868000  1
  S  S9  1  0.25000000  0.48234200  0.89132000  1
  S  S10  1  0.75000000  0.01765800  0.39132000  1
  S  S11  1  0.75000000  0.51765800  0.10868000  1
  S  S12  1  0.25000000  0.85731600  0.01020300  1
  S  S13  1  0.25000000  0.35731600  0.48979700  1
  S  S14  1  0.75000000  0.14268400  0.98979700  1
  S  S15  1  0.75000000  0.64268400  0.51020300  1
  S  S16  1  0.25000000  0.69831100  0.28062600  1
  S  S17  1  0.25000000  0.19831100  0.21937400  1
  S  S18  1  0.75000000  0.30168900  0.71937400  1
  S  S19  1  0.75000000  0.80168900  0.78062600  1
