# generated using pymatgen
data_NaSc(GeO3)2
_symmetry_space_group_name_H-M   'P 1'
_cell_length_a   10.37074600
_cell_length_b   9.25217800
_cell_length_c   5.66480864
_cell_angle_alpha   90.00000000
_cell_angle_beta   107.66753521
_cell_angle_gamma   90.00000000
_symmetry_Int_Tables_number   1
_chemical_formula_structural   NaSc(GeO3)2
_chemical_formula_sum   'Na4 Sc4 Ge8 O24'
_cell_volume   517.91236939
_cell_formula_units_Z   4
loop_
 _symmetry_equiv_pos_site_id
 _symmetry_equiv_pos_as_xyz
  1  'x, y, z'
loop_
 _atom_site_type_symbol
 _atom_site_label
 _atom_site_symmetry_multiplicity
 _atom_site_fract_x
 _atom_site_fract_y
 _atom_site_fract_z
 _atom_site_occupancy
  Na  Na0  1  0.00000000  0.69804800  0.75000000  1
  Na  Na1  1  0.00000000  0.30195200  0.25000000  1
  Na  Na2  1  0.50000000  0.19804800  0.75000000  1
  Na  Na3  1  0.50000000  0.80195200  0.25000000  1
  Sc  Sc4  1  0.00000000  0.10040300  0.75000000  1
  Sc  Sc5  1  0.00000000  0.89959700  0.25000000  1
  Sc  Sc6  1  0.50000000  0.60040300  0.75000000  1
  Sc  Sc7  1  0.50000000  0.39959700  0.25000000  1
  Ge  Ge8  1  0.78815800  0.40879500  0.73794300  1
  Ge  Ge9  1  0.21184200  0.40879500  0.76205700  1
  Ge  Ge10  1  0.21184200  0.59120500  0.26205700  1
  Ge  Ge11  1  0.78815800  0.59120500  0.23794300  1
  Ge  Ge12  1  0.28815800  0.90879500  0.73794300  1
  Ge  Ge13  1  0.71184200  0.90879500  0.76205700  1
  Ge  Ge14  1  0.71184200  0.09120500  0.26205700  1
  Ge  Ge15  1  0.28815800  0.09120500  0.23794300  1
  O  O16  1  0.85951200  0.50509100  0.02379200  1
  O  O17  1  0.14048800  0.50509100  0.47620800  1
  O  O18  1  0.14048800  0.49490900  0.97620800  1
  O  O19  1  0.85951200  0.49490900  0.52379200  1
  O  O20  1  0.85969350  0.76208550  0.30503200  1
  O  O21  1  0.14030650  0.76208550  0.19496800  1
  O  O22  1  0.14030650  0.23791450  0.69496800  1
  O  O23  1  0.85969350  0.23791450  0.80503200  1
  O  O24  1  0.60961500  0.41940000  0.63644900  1
  O  O25  1  0.39038500  0.41940000  0.86355100  1
  O  O26  1  0.39038500  0.58060000  0.36355100  1
  O  O27  1  0.60961500  0.58060000  0.13644900  1
  O  O28  1  0.35951200  0.00509100  0.02379200  1
  O  O29  1  0.64048800  0.00509100  0.47620800  1
  O  O30  1  0.64048800  0.99490900  0.97620800  1
  O  O31  1  0.35951200  0.99490900  0.52379200  1
  O  O32  1  0.35969350  0.26208550  0.30503200  1
  O  O33  1  0.64030650  0.26208550  0.19496800  1
  O  O34  1  0.64030650  0.73791450  0.69496800  1
  O  O35  1  0.35969350  0.73791450  0.80503200  1
  O  O36  1  0.10961500  0.91940000  0.63644900  1
  O  O37  1  0.89038500  0.91940000  0.86355100  1
  O  O38  1  0.89038500  0.08060000  0.36355100  1
  O  O39  1  0.10961500  0.08060000  0.13644900  1
