# generated using pymatgen
data_NaHgPO4
_symmetry_space_group_name_H-M   'P 1'
_cell_length_a   5.98053200
_cell_length_b   9.57727600
_cell_length_c   6.54723000
_cell_angle_alpha   90.00000000
_cell_angle_beta   90.00000000
_cell_angle_gamma   90.00000000
_symmetry_Int_Tables_number   1
_chemical_formula_structural   NaHgPO4
_chemical_formula_sum   'Na4 Hg4 P4 O16'
_cell_volume   375.00703876
_cell_formula_units_Z   4
loop_
 _symmetry_equiv_pos_site_id
 _symmetry_equiv_pos_as_xyz
  1  'x, y, z'
loop_
 _atom_site_type_symbol
 _atom_site_label
 _atom_site_symmetry_multiplicity
 _atom_site_fract_x
 _atom_site_fract_y
 _atom_site_fract_z
 _atom_site_occupancy
  Na  Na0  1  0.50000000  0.00000000  0.00000000  1
  Na  Na1  1  0.50000000  0.00000000  0.50000000  1
  Na  Na2  1  0.00000000  0.50000000  0.00000000  1
  Na  Na3  1  0.00000000  0.50000000  0.50000000  1
  Hg  Hg4  1  0.50000000  0.68812700  0.25000000  1
  Hg  Hg5  1  0.50000000  0.31187300  0.75000000  1
  Hg  Hg6  1  0.00000000  0.18812700  0.25000000  1
  Hg  Hg7  1  0.00000000  0.81187300  0.75000000  1
  P  P8  1  0.50000000  0.36076800  0.25000000  1
  P  P9  1  0.50000000  0.63923200  0.75000000  1
  P  P10  1  0.00000000  0.86076800  0.25000000  1
  P  P11  1  0.00000000  0.13923200  0.75000000  1
  O  O12  1  0.78730900  0.04741900  0.75000000  1
  O  O13  1  0.21269100  0.95258100  0.25000000  1
  O  O14  1  0.78730900  0.95258100  0.25000000  1
  O  O15  1  0.21269100  0.04741900  0.75000000  1
  O  O16  1  0.50000000  0.74545300  0.93454300  1
  O  O17  1  0.50000000  0.25454700  0.43454300  1
  O  O18  1  0.50000000  0.74545300  0.56545700  1
  O  O19  1  0.50000000  0.25454700  0.06545700  1
  O  O20  1  0.28730900  0.54741900  0.75000000  1
  O  O21  1  0.71269100  0.45258100  0.25000000  1
  O  O22  1  0.28730900  0.45258100  0.25000000  1
  O  O23  1  0.71269100  0.54741900  0.75000000  1
  O  O24  1  0.00000000  0.24545300  0.93454300  1
  O  O25  1  0.00000000  0.75454700  0.43454300  1
  O  O26  1  0.00000000  0.24545300  0.56545700  1
  O  O27  1  0.00000000  0.75454700  0.06545700  1
