# generated using pymatgen
data_Ba8Bi4H2O
_symmetry_space_group_name_H-M   'P 1'
_cell_length_a   5.31240000
_cell_length_b   5.31240000
_cell_length_c   38.70441600
_cell_angle_alpha   90.00000000
_cell_angle_beta   90.00000000
_cell_angle_gamma   90.00000000
_symmetry_Int_Tables_number   1
_chemical_formula_structural   Ba8Bi4H2O
_chemical_formula_sum   'Ba16 Bi8 H4 O2'
_cell_volume   1092.30030507
_cell_formula_units_Z   2
loop_
 _symmetry_equiv_pos_site_id
 _symmetry_equiv_pos_as_xyz
  1  'x, y, z'
loop_
 _atom_site_type_symbol
 _atom_site_label
 _atom_site_symmetry_multiplicity
 _atom_site_fract_x
 _atom_site_fract_y
 _atom_site_fract_z
 _atom_site_occupancy
  Ba  Ba0  1  0.50000000  0.00000000  0.00000000  1
  Ba  Ba1  1  0.00000000  0.50000000  0.00000000  1
  Ba  Ba2  1  0.00000000  0.00000000  0.08424700  1
  Ba  Ba3  1  0.50000000  0.50000000  0.16009500  1
  Ba  Ba4  1  0.50000000  0.00000000  0.25000000  1
  Ba  Ba5  1  0.00000000  0.50000000  0.25000000  1
  Ba  Ba6  1  0.00000000  0.00000000  0.33990500  1
  Ba  Ba7  1  0.50000000  0.50000000  0.41575300  1
  Ba  Ba8  1  0.00000000  0.50000000  0.50000000  1
  Ba  Ba9  1  0.50000000  0.00000000  0.50000000  1
  Ba  Ba10  1  0.50000000  0.50000000  0.58424700  1
  Ba  Ba11  1  0.00000000  0.00000000  0.66009500  1
  Ba  Ba12  1  0.00000000  0.50000000  0.75000000  1
  Ba  Ba13  1  0.50000000  0.00000000  0.75000000  1
  Ba  Ba14  1  0.50000000  0.50000000  0.83990500  1
  Ba  Ba15  1  0.00000000  0.00000000  0.91575300  1
  Bi  Bi16  1  0.50000000  0.50000000  0.06749300  1
  Bi  Bi17  1  0.00000000  0.00000000  0.17961600  1
  Bi  Bi18  1  0.50000000  0.50000000  0.32038400  1
  Bi  Bi19  1  0.00000000  0.00000000  0.43250700  1
  Bi  Bi20  1  0.00000000  0.00000000  0.56749300  1
  Bi  Bi21  1  0.50000000  0.50000000  0.67961600  1
  Bi  Bi22  1  0.00000000  0.00000000  0.82038400  1
  Bi  Bi23  1  0.50000000  0.50000000  0.93250700  1
  H  H24  1  0.50000000  0.50000000  0.22911900  1
  H  H25  1  0.00000000  0.00000000  0.27088100  1
  H  H26  1  0.00000000  0.00000000  0.72911900  1
  H  H27  1  0.50000000  0.50000000  0.77088100  1
  O  O28  1  0.00000000  0.00000000  0.00000000  1
  O  O29  1  0.50000000  0.50000000  0.50000000  1
