# generated using pymatgen
data_Ba5V5O14
_symmetry_space_group_name_H-M   'P 1'
_cell_length_a   5.78510900
_cell_length_b   5.79928238
_cell_length_c   23.81486576
_cell_angle_alpha   89.05345428
_cell_angle_beta   89.49931495
_cell_angle_gamma   60.56578617
_symmetry_Int_Tables_number   1
_chemical_formula_structural   Ba5V5O14
_chemical_formula_sum   'Ba10 V10 O28'
_cell_volume   695.74979001
_cell_formula_units_Z   2
loop_
 _symmetry_equiv_pos_site_id
 _symmetry_equiv_pos_as_xyz
  1  'x, y, z'
loop_
 _atom_site_type_symbol
 _atom_site_label
 _atom_site_symmetry_multiplicity
 _atom_site_fract_x
 _atom_site_fract_y
 _atom_site_fract_z
 _atom_site_occupancy
  Ba  Ba0  1  0.66660200  0.66665400  0.79408800  1
  Ba  Ba1  1  0.66109900  0.67515800  0.61207700  1
  Ba  Ba2  1  0.66834500  0.67329300  0.29525500  1
  Ba  Ba3  1  0.67262400  0.66754800  0.11191800  1
  Ba  Ba4  1  0.00074700  0.99466600  0.99990300  1
  Ba  Ba5  1  0.99801700  0.00172200  0.49910000  1
  Ba  Ba6  1  0.32884400  0.33737300  0.89032900  1
  Ba  Ba7  1  0.33378700  0.33562600  0.39117000  1
  Ba  Ba8  1  0.33678900  0.33326700  0.20780800  1
  Ba  Ba9  1  0.32938600  0.34159600  0.70765500  1
  V  V10  1  0.63272900  0.68886900  0.94608600  1
  V  V11  1  0.68493800  0.63012600  0.44678200  1
  V  V12  1  0.99114300  0.00428600  0.85992400  1
  V  V13  1  0.01535900  0.98422300  0.14046200  1
  V  V14  1  0.99846500  0.00633000  0.74884500  1
  V  V15  1  0.99115300  0.02350700  0.63921400  1
  V  V16  1  0.00049700  0.00083900  0.35951000  1
  V  V17  1  0.00022400  0.00547700  0.24895600  1
  V  V18  1  0.30869200  0.38210200  0.55455700  1
  V  V19  1  0.37125900  0.31730400  0.05438900  1
  O  O20  1  0.53042300  0.95535400  0.00405500  1
  O  O21  1  0.31028800  0.84746400  0.89926700  1
  O  O22  1  0.34134900  0.83627800  0.40689700  1
  O  O23  1  0.29383200  0.86066000  0.69582800  1
  O  O24  1  0.31083700  0.85004100  0.19576600  1
  O  O25  1  0.83419700  0.87445000  0.70028500  1
  O  O26  1  0.86258500  0.83337100  0.20051300  1
  O  O27  1  0.83926800  0.81972500  0.90675500  1
  O  O28  1  0.82571000  0.83523000  0.40566000  1
  O  O29  1  0.85452800  0.29325200  0.19811400  1
  O  O30  1  0.84360100  0.32265800  0.69736400  1
  O  O31  1  0.85041100  0.30962300  0.40019000  1
  O  O32  1  0.83167400  0.33602200  0.90703300  1
  O  O33  1  0.01659800  0.48324300  0.49903200  1
  O  O34  1  0.16587400  0.65812900  0.59853900  1
  O  O35  1  0.17741000  0.65753400  0.09422500  1
  O  O36  1  0.14446100  0.70477000  0.80227500  1
  O  O37  1  0.15061500  0.70746900  0.30605100  1
  O  O38  1  0.18715100  0.15079800  0.58978300  1
  O  O39  1  0.15039900  0.20376500  0.08585400  1
  O  O40  1  0.14078700  0.15731800  0.80026300  1
  O  O41  1  0.15910500  0.14493100  0.30152500  1
  O  O42  1  0.45130900  0.48278500  0.99606400  1
  O  O43  1  0.50455800  0.48014900  0.49921900  1
  O  O44  1  0.69933400  0.14854600  0.80755100  1
  O  O45  1  0.70124900  0.15107300  0.30313400  1
  O  O46  1  0.65932100  0.15684600  0.59204100  1
  O  O47  1  0.67182000  0.16595200  0.09869000  1
