# generated using pymatgen
data_Ca3SnS5
_symmetry_space_group_name_H-M   'P 1'
_cell_length_a   8.61871800
_cell_length_b   8.71217500
_cell_length_c   12.18189500
_cell_angle_alpha   90.00000000
_cell_angle_beta   90.00000000
_cell_angle_gamma   90.00000000
_symmetry_Int_Tables_number   1
_chemical_formula_structural   Ca3SnS5
_chemical_formula_sum   'Ca12 Sn4 S20'
_cell_volume   914.71144555
_cell_formula_units_Z   4
loop_
 _symmetry_equiv_pos_site_id
 _symmetry_equiv_pos_as_xyz
  1  'x, y, z'
loop_
 _atom_site_type_symbol
 _atom_site_label
 _atom_site_symmetry_multiplicity
 _atom_site_fract_x
 _atom_site_fract_y
 _atom_site_fract_z
 _atom_site_occupancy
  Ca  Ca0  1  0.51121800  0.10995900  0.20293600  1
  Ca  Ca1  1  0.98878200  0.39004100  0.70293600  1
  Ca  Ca2  1  0.01121800  0.89004100  0.79706400  1
  Ca  Ca3  1  0.48878200  0.60995900  0.29706400  1
  Ca  Ca4  1  0.48878200  0.89004100  0.79706400  1
  Ca  Ca5  1  0.01121800  0.60995900  0.29706400  1
  Ca  Ca6  1  0.98878200  0.10995900  0.20293600  1
  Ca  Ca7  1  0.51121800  0.39004100  0.70293600  1
  Ca  Ca8  1  0.25000000  0.11007900  0.50934000  1
  Ca  Ca9  1  0.25000000  0.38992100  0.00934000  1
  Ca  Ca10  1  0.75000000  0.88992100  0.49066000  1
  Ca  Ca11  1  0.75000000  0.61007900  0.99066000  1
  Sn  Sn12  1  0.25000000  0.81785400  0.09252500  1
  Sn  Sn13  1  0.25000000  0.68214600  0.59252500  1
  Sn  Sn14  1  0.75000000  0.18214600  0.90747500  1
  Sn  Sn15  1  0.75000000  0.31785400  0.40747500  1
  S  S16  1  0.95546400  0.13998100  0.42804100  1
  S  S17  1  0.54453600  0.36001900  0.92804100  1
  S  S18  1  0.45546400  0.86001900  0.57195900  1
  S  S19  1  0.04453600  0.63998100  0.07195900  1
  S  S20  1  0.04453600  0.86001900  0.57195900  1
  S  S21  1  0.45546400  0.63998100  0.07195900  1
  S  S22  1  0.54453600  0.13998100  0.42804100  1
  S  S23  1  0.95546400  0.36001900  0.92804100  1
  S  S24  1  0.25000000  0.02199800  0.96204800  1
  S  S25  1  0.25000000  0.47800200  0.46204800  1
  S  S26  1  0.75000000  0.97800200  0.03795200  1
  S  S27  1  0.75000000  0.52199800  0.53795200  1
  S  S28  1  0.25000000  0.29707100  0.21945700  1
  S  S29  1  0.25000000  0.20292900  0.71945700  1
  S  S30  1  0.75000000  0.70292900  0.78054300  1
  S  S31  1  0.75000000  0.79707100  0.28054300  1
  S  S32  1  0.25000000  0.86772500  0.28961600  1
  S  S33  1  0.25000000  0.63227500  0.78961600  1
  S  S34  1  0.75000000  0.13227500  0.71038400  1
  S  S35  1  0.75000000  0.36772500  0.21038400  1
