# generated using pymatgen
data_Na5TaO5
_symmetry_space_group_name_H-M   'P 1'
_cell_length_a   6.35301800
_cell_length_b   10.35760200
_cell_length_c   10.12679675
_cell_angle_alpha   90.00000000
_cell_angle_beta   106.58587232
_cell_angle_gamma   90.00000000
_symmetry_Int_Tables_number   1
_chemical_formula_structural   Na5TaO5
_chemical_formula_sum   'Na20 Ta4 O20'
_cell_volume   638.63839672
_cell_formula_units_Z   4
loop_
 _symmetry_equiv_pos_site_id
 _symmetry_equiv_pos_as_xyz
  1  'x, y, z'
loop_
 _atom_site_type_symbol
 _atom_site_label
 _atom_site_symmetry_multiplicity
 _atom_site_fract_x
 _atom_site_fract_y
 _atom_site_fract_z
 _atom_site_occupancy
  Na  Na0  1  0.83634000  0.84149400  0.92237300  1
  Na  Na1  1  0.16366000  0.84149400  0.57762700  1
  Na  Na2  1  0.67031900  0.88564400  0.55023100  1
  Na  Na3  1  0.32968100  0.88564400  0.94976900  1
  Na  Na4  1  0.32968100  0.11435600  0.44976900  1
  Na  Na5  1  0.67031900  0.11435600  0.05023100  1
  Na  Na6  1  0.50000000  0.83141500  0.25000000  1
  Na  Na7  1  0.50000000  0.16858500  0.75000000  1
  Na  Na8  1  0.83634000  0.15850600  0.42237300  1
  Na  Na9  1  0.16366000  0.15850600  0.07762700  1
  Na  Na10  1  0.33634000  0.34149400  0.92237300  1
  Na  Na11  1  0.66366000  0.34149400  0.57762700  1
  Na  Na12  1  0.17031900  0.38564400  0.55023100  1
  Na  Na13  1  0.82968100  0.38564400  0.94976900  1
  Na  Na14  1  0.82968100  0.61435600  0.44976900  1
  Na  Na15  1  0.17031900  0.61435600  0.05023100  1
  Na  Na16  1  0.00000000  0.33141500  0.25000000  1
  Na  Na17  1  0.00000000  0.66858500  0.75000000  1
  Na  Na18  1  0.33634000  0.65850600  0.42237300  1
  Na  Na19  1  0.66366000  0.65850600  0.07762700  1
  Ta  Ta20  1  0.50000000  0.40721000  0.25000000  1
  Ta  Ta21  1  0.50000000  0.59279000  0.75000000  1
  Ta  Ta22  1  0.00000000  0.90721000  0.25000000  1
  Ta  Ta23  1  0.00000000  0.09279000  0.75000000  1
  O  O24  1  0.50000000  0.59181400  0.25000000  1
  O  O25  1  0.50000000  0.40818600  0.75000000  1
  O  O26  1  0.36800350  0.32819350  0.38086200  1
  O  O27  1  0.63199650  0.32819350  0.11913800  1
  O  O28  1  0.70487000  0.89315400  0.10516800  1
  O  O29  1  0.29513000  0.89315400  0.39483200  1
  O  O30  1  0.29513000  0.10684600  0.89483200  1
  O  O31  1  0.70487000  0.10684600  0.60516800  1
  O  O32  1  0.63199650  0.67180650  0.61913800  1
  O  O33  1  0.36800350  0.67180650  0.88086200  1
  O  O34  1  0.00000000  0.09181400  0.25000000  1
  O  O35  1  0.00000000  0.90818600  0.75000000  1
  O  O36  1  0.86800350  0.82819350  0.38086200  1
  O  O37  1  0.13199650  0.82819350  0.11913800  1
  O  O38  1  0.20487000  0.39315400  0.10516800  1
  O  O39  1  0.79513000  0.39315400  0.39483200  1
  O  O40  1  0.79513000  0.60684600  0.89483200  1
  O  O41  1  0.20487000  0.60684600  0.60516800  1
  O  O42  1  0.13199650  0.17180650  0.61913800  1
  O  O43  1  0.86800350  0.17180650  0.88086200  1
