# generated using pymatgen
data_Co2(SnTe)3
_symmetry_space_group_name_H-M   'P 1'
_cell_length_a   13.01549033
_cell_length_b   13.01549033
_cell_length_c   15.92204733
_cell_angle_alpha   90.00000000
_cell_angle_beta   90.00000000
_cell_angle_gamma   120.00000000
_symmetry_Int_Tables_number   1
_chemical_formula_structural   Co2(SnTe)3
_chemical_formula_sum   'Co24 Sn36 Te36'
_cell_volume   2335.88044085
_cell_formula_units_Z   12
loop_
 _symmetry_equiv_pos_site_id
 _symmetry_equiv_pos_as_xyz
  1  'x, y, z'
loop_
 _atom_site_type_symbol
 _atom_site_label
 _atom_site_symmetry_multiplicity
 _atom_site_fract_x
 _atom_site_fract_y
 _atom_site_fract_z
 _atom_site_occupancy
  Co  Co0  1  0.83170267  0.16369233  0.41216633  1
  Co  Co1  1  0.83630767  0.66801033  0.41216633  1
  Co  Co2  1  0.33198967  0.16829733  0.41216633  1
  Co  Co3  1  0.16829733  0.83630767  0.58783367  1
  Co  Co4  1  0.16369233  0.33198967  0.58783367  1
  Co  Co5  1  0.66801033  0.83170267  0.58783367  1
  Co  Co6  1  0.00000000  0.00000000  0.74843000  1
  Co  Co7  1  0.00000000  0.00000000  0.25157000  1
  Co  Co8  1  0.49836933  0.49702567  0.74549967  1
  Co  Co9  1  0.50297433  0.00134367  0.74549967  1
  Co  Co10  1  0.99865633  0.50163067  0.74549967  1
  Co  Co11  1  0.83496400  0.16964100  0.92116700  1
  Co  Co12  1  0.83035900  0.66532300  0.92116700  1
  Co  Co13  1  0.33467700  0.16503600  0.92116700  1
  Co  Co14  1  0.66666667  0.33333333  0.08176333  1
  Co  Co15  1  0.66666667  0.33333333  0.58490333  1
  Co  Co16  1  0.16503600  0.83035900  0.07883300  1
  Co  Co17  1  0.16964100  0.33467700  0.07883300  1
  Co  Co18  1  0.66532300  0.83496400  0.07883300  1
  Co  Co19  1  0.50163067  0.50297433  0.25450033  1
  Co  Co20  1  0.49702567  0.99865633  0.25450033  1
  Co  Co21  1  0.00134367  0.49836933  0.25450033  1
  Co  Co22  1  0.33333333  0.66666667  0.41509667  1
  Co  Co23  1  0.33333333  0.66666667  0.91823667  1
  Sn  Sn24  1  0.17470333  0.67159667  0.50679067  1
  Sn  Sn25  1  0.32840333  0.50310667  0.50679067  1
  Sn  Sn26  1  0.49689333  0.82529667  0.50679067  1
  Sn  Sn27  1  0.82529667  0.32840333  0.49320933  1
  Sn  Sn28  1  0.67159667  0.49689333  0.49320933  1
  Sn  Sn29  1  0.50310667  0.17470333  0.49320933  1
  Sn  Sn30  1  0.73227567  0.78299533  0.44846133  1
  Sn  Sn31  1  0.21700467  0.94928033  0.44846133  1
  Sn  Sn32  1  0.05071967  0.26772433  0.44846133  1
  Sn  Sn33  1  0.26772433  0.21700467  0.55153867  1
  Sn  Sn34  1  0.78299533  0.05071967  0.55153867  1
  Sn  Sn35  1  0.94928033  0.73227567  0.55153867  1
  Sn  Sn36  1  0.84137000  0.00493000  0.84012400  1
  Sn  Sn37  1  0.99507000  0.83644000  0.84012400  1
  Sn  Sn38  1  0.16356000  0.15863000  0.84012400  1
  Sn  Sn39  1  0.49196333  0.66173667  0.82654267  1
  Sn  Sn40  1  0.33826333  0.83022667  0.82654267  1
  Sn  Sn41  1  0.16977333  0.50803667  0.82654267  1
  Sn  Sn42  1  0.39894233  0.11632867  0.78179467  1
  Sn  Sn43  1  0.88367133  0.28261367  0.78179467  1
  Sn  Sn44  1  0.71738633  0.60105767  0.78179467  1
  Sn  Sn45  1  0.93439100  0.55033800  0.88487200  1
  Sn  Sn46  1  0.44966200  0.38405300  0.88487200  1
  Sn  Sn47  1  0.61594700  0.06560900  0.88487200  1
  Sn  Sn48  1  0.50803667  0.33826333  0.17345733  1
  Sn  Sn49  1  0.66173667  0.16977333  0.17345733  1
  Sn  Sn50  1  0.83022667  0.49196333  0.17345733  1
  Sn  Sn51  1  0.15863000  0.99507000  0.15987600  1
  Sn  Sn52  1  0.00493000  0.16356000  0.15987600  1
  Sn  Sn53  1  0.83644000  0.84137000  0.15987600  1
  Sn  Sn54  1  0.06560900  0.44966200  0.11512800  1
  Sn  Sn55  1  0.55033800  0.61594700  0.11512800  1
  Sn  Sn56  1  0.38405300  0.93439100  0.11512800  1
  Sn  Sn57  1  0.60105767  0.88367133  0.21820533  1
  Sn  Sn58  1  0.11632867  0.71738633  0.21820533  1
  Sn  Sn59  1  0.28261367  0.39894233  0.21820533  1
  Te  Te60  1  0.82668667  0.98928633  0.33285033  1
  Te  Te61  1  0.01071367  0.83740033  0.33285033  1
  Te  Te62  1  0.16259967  0.17331333  0.33285033  1
  Te  Te63  1  0.17331333  0.01071367  0.66714967  1
  Te  Te64  1  0.98928633  0.16259967  0.66714967  1
  Te  Te65  1  0.83740033  0.82668667  0.66714967  1
  Te  Te66  1  0.05443200  0.44884700  0.60527000  1
  Te  Te67  1  0.55115300  0.60558500  0.60527000  1
  Te  Te68  1  0.39441500  0.94556800  0.60527000  1
  Te  Te69  1  0.94556800  0.55115300  0.39473000  1
  Te  Te70  1  0.44884700  0.39441500  0.39473000  1
  Te  Te71  1  0.60558500  0.05443200  0.39473000  1
  Te  Te72  1  0.49335333  0.32261967  0.66618367  1
  Te  Te73  1  0.67738033  0.17073367  0.66618367  1
  Te  Te74  1  0.82926633  0.50664667  0.66618367  1
  Te  Te75  1  0.83998000  0.34404700  0.00048300  1
  Te  Te76  1  0.65595300  0.49593300  0.00048300  1
  Te  Te77  1  0.50406700  0.16002000  0.00048300  1
  Te  Te78  1  0.72109867  0.78218033  0.93860333  1
  Te  Te79  1  0.21781967  0.93891833  0.93860333  1
  Te  Te80  1  0.06108167  0.27890133  0.93860333  1
  Te  Te81  1  0.61223467  0.88448633  0.72806333  1
  Te  Te82  1  0.11551367  0.72774833  0.72806333  1
  Te  Te83  1  0.27225167  0.38776533  0.72806333  1
  Te  Te84  1  0.16002000  0.65595300  0.99951700  1
  Te  Te85  1  0.34404700  0.50406700  0.99951700  1
  Te  Te86  1  0.49593300  0.83998000  0.99951700  1
  Te  Te87  1  0.50664667  0.67738033  0.33381633  1
  Te  Te88  1  0.32261967  0.82926633  0.33381633  1
  Te  Te89  1  0.17073367  0.49335333  0.33381633  1
  Te  Te90  1  0.38776533  0.11551367  0.27193667  1
  Te  Te91  1  0.88448633  0.27225167  0.27193667  1
  Te  Te92  1  0.72774833  0.61223467  0.27193667  1
  Te  Te93  1  0.27890133  0.21781967  0.06139667  1
  Te  Te94  1  0.78218033  0.06108167  0.06139667  1
  Te  Te95  1  0.93891833  0.72109867  0.06139667  1
