# generated using pymatgen
data_InH4NCl4
_symmetry_space_group_name_H-M   'P 1'
_cell_length_a   7.16438400
_cell_length_b   7.16438400
_cell_length_c   15.64947600
_cell_angle_alpha   90.00000000
_cell_angle_beta   90.00000000
_cell_angle_gamma   90.00000000
_symmetry_Int_Tables_number   1
_chemical_formula_structural   InH4NCl4
_chemical_formula_sum   'In4 H16 N4 Cl16'
_cell_volume   803.26253418
_cell_formula_units_Z   4
loop_
 _symmetry_equiv_pos_site_id
 _symmetry_equiv_pos_as_xyz
  1  'x, y, z'
loop_
 _atom_site_type_symbol
 _atom_site_label
 _atom_site_symmetry_multiplicity
 _atom_site_fract_x
 _atom_site_fract_y
 _atom_site_fract_z
 _atom_site_occupancy
  In  In0  1  0.50000000  0.50000000  0.00000000  1
  In  In1  1  0.50000000  0.00000000  0.25000000  1
  In  In2  1  0.00000000  0.00000000  0.50000000  1
  In  In3  1  0.00000000  0.50000000  0.75000000  1
  H  H4  1  0.00263750  0.61687150  0.28843550  1
  H  H5  1  0.88312850  0.50263750  0.21156450  1
  H  H6  1  0.11687150  0.49736250  0.21156450  1
  H  H7  1  0.50263750  0.61687150  0.46156450  1
  H  H8  1  0.99736250  0.38312850  0.28843550  1
  H  H9  1  0.88312850  0.00263750  0.03843550  1
  H  H10  1  0.11687150  0.99736250  0.03843550  1
  H  H11  1  0.49736250  0.38312850  0.46156450  1
  H  H12  1  0.50263750  0.11687150  0.78843550  1
  H  H13  1  0.38312850  0.00263750  0.71156450  1
  H  H14  1  0.61687150  0.99736250  0.71156450  1
  H  H15  1  0.00263750  0.11687150  0.96156450  1
  H  H16  1  0.49736250  0.88312850  0.78843550  1
  H  H17  1  0.38312850  0.50263750  0.53843550  1
  H  H18  1  0.61687150  0.49736250  0.53843550  1
  H  H19  1  0.99736250  0.88312850  0.96156450  1
  N  N20  1  0.00000000  0.50000000  0.25000000  1
  N  N21  1  0.00000000  0.00000000  0.00000000  1
  N  N22  1  0.50000000  0.00000000  0.75000000  1
  N  N23  1  0.50000000  0.50000000  0.50000000  1
  Cl  Cl24  1  0.26184800  0.64676600  0.08447300  1
  Cl  Cl25  1  0.35323400  0.76184800  0.33447300  1
  Cl  Cl26  1  0.85323400  0.76184800  0.41552700  1
  Cl  Cl27  1  0.73815200  0.35323400  0.08447300  1
  Cl  Cl28  1  0.26184800  0.14676600  0.16552700  1
  Cl  Cl29  1  0.64676600  0.23815200  0.33447300  1
  Cl  Cl30  1  0.14676600  0.23815200  0.41552700  1
  Cl  Cl31  1  0.73815200  0.85323400  0.16552700  1
  Cl  Cl32  1  0.76184800  0.14676600  0.58447300  1
  Cl  Cl33  1  0.85323400  0.26184800  0.83447300  1
  Cl  Cl34  1  0.35323400  0.26184800  0.91552700  1
  Cl  Cl35  1  0.23815200  0.85323400  0.58447300  1
  Cl  Cl36  1  0.76184800  0.64676600  0.66552700  1
  Cl  Cl37  1  0.14676600  0.73815200  0.83447300  1
  Cl  Cl38  1  0.64676600  0.73815200  0.91552700  1
  Cl  Cl39  1  0.23815200  0.35323400  0.66552700  1
