# generated using pymatgen
data_K2CuF4
_symmetry_space_group_name_H-M   'P 1'
_cell_length_a   5.93084600
_cell_length_b   12.89581800
_cell_length_c   5.93277400
_cell_angle_alpha   90.00000000
_cell_angle_beta   90.00000000
_cell_angle_gamma   90.00000000
_symmetry_Int_Tables_number   1
_chemical_formula_structural   K2CuF4
_chemical_formula_sum   'K8 Cu4 F16'
_cell_volume   453.75701002
_cell_formula_units_Z   4
loop_
 _symmetry_equiv_pos_site_id
 _symmetry_equiv_pos_as_xyz
  1  'x, y, z'
loop_
 _atom_site_type_symbol
 _atom_site_label
 _atom_site_symmetry_multiplicity
 _atom_site_fract_x
 _atom_site_fract_y
 _atom_site_fract_z
 _atom_site_occupancy
  K  K0  1  0.00000000  0.64218000  0.00000000  1
  K  K1  1  0.00000000  0.85782000  0.50000000  1
  K  K2  1  0.50000000  0.64218000  0.50000000  1
  K  K3  1  0.50000000  0.85782000  0.00000000  1
  K  K4  1  0.50000000  0.14218000  0.00000000  1
  K  K5  1  0.50000000  0.35782000  0.50000000  1
  K  K6  1  0.00000000  0.14218000  0.50000000  1
  K  K7  1  0.00000000  0.35782000  0.00000000  1
  Cu  Cu8  1  0.00000000  0.00000000  0.00000000  1
  Cu  Cu9  1  0.50000000  0.00000000  0.50000000  1
  Cu  Cu10  1  0.50000000  0.50000000  0.00000000  1
  Cu  Cu11  1  0.00000000  0.50000000  0.50000000  1
  F  F12  1  0.76795300  0.00000000  0.76800400  1
  F  F13  1  0.26795300  0.00000000  0.73199600  1
  F  F14  1  0.73204700  0.00000000  0.26800400  1
  F  F15  1  0.23204700  0.00000000  0.23199600  1
  F  F16  1  0.50000000  0.84646400  0.50000000  1
  F  F17  1  0.50000000  0.65353600  0.00000000  1
  F  F18  1  0.00000000  0.84646400  0.00000000  1
  F  F19  1  0.00000000  0.65353600  0.50000000  1
  F  F20  1  0.26795300  0.50000000  0.76800400  1
  F  F21  1  0.76795300  0.50000000  0.73199600  1
  F  F22  1  0.23204700  0.50000000  0.26800400  1
  F  F23  1  0.73204700  0.50000000  0.23199600  1
  F  F24  1  0.00000000  0.34646400  0.50000000  1
  F  F25  1  0.00000000  0.15353600  0.00000000  1
  F  F26  1  0.50000000  0.34646400  0.00000000  1
  F  F27  1  0.50000000  0.15353600  0.50000000  1
