# generated using pymatgen
data_Li2SnP2O7
_symmetry_space_group_name_H-M   'P 1'
_cell_length_a   15.84706600
_cell_length_b   5.23579400
_cell_length_c   9.46399021
_cell_angle_alpha   90.00000000
_cell_angle_beta   116.34971761
_cell_angle_gamma   90.00000000
_symmetry_Int_Tables_number   1
_chemical_formula_structural   Li2SnP2O7
_chemical_formula_sum   'Li8 Sn4 P8 O28'
_cell_volume   703.66016319
_cell_formula_units_Z   4
loop_
 _symmetry_equiv_pos_site_id
 _symmetry_equiv_pos_as_xyz
  1  'x, y, z'
loop_
 _atom_site_type_symbol
 _atom_site_label
 _atom_site_symmetry_multiplicity
 _atom_site_fract_x
 _atom_site_fract_y
 _atom_site_fract_z
 _atom_site_occupancy
  Li  Li0  1  0.30418450  0.85688150  0.44780700  1
  Li  Li1  1  0.30418450  0.14311850  0.94780700  1
  Li  Li2  1  0.19581550  0.35688150  0.05219300  1
  Li  Li3  1  0.19581550  0.64311850  0.55219300  1
  Li  Li4  1  0.80418450  0.35688150  0.44780700  1
  Li  Li5  1  0.80418450  0.64311850  0.94780700  1
  Li  Li6  1  0.69581550  0.85688150  0.05219300  1
  Li  Li7  1  0.69581550  0.14311850  0.55219300  1
  Sn  Sn8  1  0.00000000  0.50000000  0.50000000  1
  Sn  Sn9  1  0.00000000  0.50000000  0.00000000  1
  Sn  Sn10  1  0.50000000  0.00000000  0.50000000  1
  Sn  Sn11  1  0.50000000  0.00000000  0.00000000  1
  P  P12  1  0.39181100  0.62261900  0.18183600  1
  P  P13  1  0.39181100  0.37738100  0.68183600  1
  P  P14  1  0.10818900  0.12261900  0.31816400  1
  P  P15  1  0.10818900  0.87738100  0.81816400  1
  P  P16  1  0.89181100  0.12261900  0.18183600  1
  P  P17  1  0.89181100  0.87738100  0.68183600  1
  P  P18  1  0.60818900  0.62261900  0.31816400  1
  P  P19  1  0.60818900  0.37738100  0.81816400  1
  O  O20  1  0.32798700  0.39595500  0.10812900  1
  O  O21  1  0.32798700  0.60404500  0.60812900  1
  O  O22  1  0.38482400  0.83555600  0.06430000  1
  O  O23  1  0.38050100  0.73239700  0.32366600  1
  O  O24  1  0.38482400  0.16444400  0.56430000  1
  O  O25  1  0.38050100  0.26760300  0.82366600  1
  O  O26  1  0.00000000  0.00204400  0.25000000  1
  O  O27  1  0.00000000  0.99795600  0.75000000  1
  O  O28  1  0.11949900  0.23239700  0.17633400  1
  O  O29  1  0.11517600  0.33555600  0.43570000  1
  O  O30  1  0.11949900  0.76760300  0.67633400  1
  O  O31  1  0.11517600  0.66444400  0.93570000  1
  O  O32  1  0.17201300  0.89595500  0.39187100  1
  O  O33  1  0.17201300  0.10404500  0.89187100  1
  O  O34  1  0.82798700  0.89595500  0.10812900  1
  O  O35  1  0.82798700  0.10404500  0.60812900  1
  O  O36  1  0.88482400  0.33555600  0.06430000  1
  O  O37  1  0.88050100  0.23239700  0.32366600  1
  O  O38  1  0.88482400  0.66444400  0.56430000  1
  O  O39  1  0.88050100  0.76760300  0.82366600  1
  O  O40  1  0.50000000  0.50204400  0.25000000  1
  O  O41  1  0.50000000  0.49795600  0.75000000  1
  O  O42  1  0.61949900  0.73239700  0.17633400  1
  O  O43  1  0.61517600  0.83555600  0.43570000  1
  O  O44  1  0.61949900  0.26760300  0.67633400  1
  O  O45  1  0.61517600  0.16444400  0.93570000  1
  O  O46  1  0.67201300  0.39595500  0.39187100  1
  O  O47  1  0.67201300  0.60404500  0.89187100  1
