# generated using pymatgen
data_Sr3Co(CN)3
_symmetry_space_group_name_H-M   'P 1'
_cell_length_a   8.71567607
_cell_length_b   8.71567607
_cell_length_c   5.43335000
_cell_angle_alpha   90.00000000
_cell_angle_beta   90.00000000
_cell_angle_gamma   120.00000000
_symmetry_Int_Tables_number   1
_chemical_formula_structural   Sr3Co(CN)3
_chemical_formula_sum   'Sr6 Co2 C6 N6'
_cell_volume   357.43779762
_cell_formula_units_Z   2
loop_
 _symmetry_equiv_pos_site_id
 _symmetry_equiv_pos_as_xyz
  1  'x, y, z'
loop_
 _atom_site_type_symbol
 _atom_site_label
 _atom_site_symmetry_multiplicity
 _atom_site_fract_x
 _atom_site_fract_y
 _atom_site_fract_z
 _atom_site_occupancy
  Sr  Sr0  1  0.93461400  0.62716100  0.25000000  1
  Sr  Sr1  1  0.37283900  0.30745300  0.25000000  1
  Sr  Sr2  1  0.62716100  0.69254700  0.75000000  1
  Sr  Sr3  1  0.06538600  0.37283900  0.75000000  1
  Sr  Sr4  1  0.69254700  0.06538600  0.25000000  1
  Sr  Sr5  1  0.30745300  0.93461400  0.75000000  1
  Co  Co6  1  0.33333333  0.66666667  0.25000000  1
  Co  Co7  1  0.66666667  0.33333333  0.75000000  1
  C  C8  1  0.30292600  0.85152200  0.25000000  1
  C  C9  1  0.14847800  0.45140400  0.25000000  1
  C  C10  1  0.85152200  0.54859600  0.75000000  1
  C  C11  1  0.69707400  0.14847800  0.75000000  1
  C  C12  1  0.54859600  0.69707400  0.25000000  1
  C  C13  1  0.45140400  0.30292600  0.75000000  1
  N  N14  1  0.27248000  0.97689200  0.25000000  1
  N  N15  1  0.02310800  0.29558800  0.25000000  1
  N  N16  1  0.97689200  0.70441200  0.75000000  1
  N  N17  1  0.29558800  0.27248000  0.75000000  1
  N  N18  1  0.72752000  0.02310800  0.75000000  1
  N  N19  1  0.70441200  0.72752000  0.25000000  1
