# generated using pymatgen
data_Ba2InBiS5
_symmetry_space_group_name_H-M   'P 1'
_cell_length_a   4.21224600
_cell_length_b   18.63489000
_cell_length_c   12.96383600
_cell_angle_alpha   90.00000000
_cell_angle_beta   90.00000000
_cell_angle_gamma   90.00000000
_symmetry_Int_Tables_number   1
_chemical_formula_structural   Ba2InBiS5
_chemical_formula_sum   'Ba8 In4 Bi4 S20'
_cell_volume   1017.59294741
_cell_formula_units_Z   4
loop_
 _symmetry_equiv_pos_site_id
 _symmetry_equiv_pos_as_xyz
  1  'x, y, z'
loop_
 _atom_site_type_symbol
 _atom_site_label
 _atom_site_symmetry_multiplicity
 _atom_site_fract_x
 _atom_site_fract_y
 _atom_site_fract_z
 _atom_site_occupancy
  Ba  Ba0  1  0.50000000  0.37046500  0.81032500  1
  Ba  Ba1  1  0.00000000  0.11275900  0.68443200  1
  Ba  Ba2  1  0.00000000  0.12953500  0.31032500  1
  Ba  Ba3  1  0.50000000  0.38724100  0.18443200  1
  Ba  Ba4  1  0.00000000  0.87046500  0.81032500  1
  Ba  Ba5  1  0.50000000  0.61275900  0.68443200  1
  Ba  Ba6  1  0.50000000  0.62953500  0.31032500  1
  Ba  Ba7  1  0.00000000  0.88724100  0.18443200  1
  In  In8  1  0.50000000  0.05618100  0.94429800  1
  In  In9  1  0.00000000  0.44381900  0.44429800  1
  In  In10  1  0.00000000  0.55618100  0.94429800  1
  In  In11  1  0.50000000  0.94381900  0.44429800  1
  Bi  Bi12  1  0.50000000  0.28307000  0.52190300  1
  Bi  Bi13  1  0.00000000  0.21693000  0.02190300  1
  Bi  Bi14  1  0.00000000  0.78307000  0.52190300  1
  Bi  Bi15  1  0.50000000  0.71693000  0.02190300  1
  S  S16  1  0.00000000  0.35710100  0.00031800  1
  S  S17  1  0.50000000  0.18410600  0.86933900  1
  S  S18  1  0.00000000  0.49603300  0.77638600  1
  S  S19  1  0.00000000  0.28396400  0.66519500  1
  S  S20  1  0.50000000  0.45466500  0.55177400  1
  S  S21  1  0.50000000  0.14289900  0.50031800  1
  S  S22  1  0.00000000  0.31589400  0.36933900  1
  S  S23  1  0.50000000  0.00396700  0.27638600  1
  S  S24  1  0.50000000  0.21603600  0.16519500  1
  S  S25  1  0.00000000  0.04533500  0.05177400  1
  S  S26  1  0.50000000  0.85710100  0.00031800  1
  S  S27  1  0.00000000  0.68410600  0.86933900  1
  S  S28  1  0.50000000  0.99603300  0.77638600  1
  S  S29  1  0.50000000  0.78396400  0.66519500  1
  S  S30  1  0.00000000  0.95466500  0.55177400  1
  S  S31  1  0.00000000  0.64289900  0.50031800  1
  S  S32  1  0.50000000  0.81589400  0.36933900  1
  S  S33  1  0.00000000  0.50396700  0.27638600  1
  S  S34  1  0.00000000  0.71603600  0.16519500  1
  S  S35  1  0.50000000  0.54533500  0.05177400  1
