# generated using pymatgen
data_TlPS3
_symmetry_space_group_name_H-M   'P 1'
_cell_length_a   7.12569400
_cell_length_b   8.38953600
_cell_length_c   9.15502200
_cell_angle_alpha   90.00000000
_cell_angle_beta   90.00000000
_cell_angle_gamma   90.00000000
_symmetry_Int_Tables_number   1
_chemical_formula_structural   TlPS3
_chemical_formula_sum   'Tl4 P4 S12'
_cell_volume   547.29880851
_cell_formula_units_Z   4
loop_
 _symmetry_equiv_pos_site_id
 _symmetry_equiv_pos_as_xyz
  1  'x, y, z'
loop_
 _atom_site_type_symbol
 _atom_site_label
 _atom_site_symmetry_multiplicity
 _atom_site_fract_x
 _atom_site_fract_y
 _atom_site_fract_z
 _atom_site_occupancy
  Tl  Tl0  1  0.50000000  0.75014600  0.50000000  1
  Tl  Tl1  1  0.50000000  0.24985400  0.50000000  1
  Tl  Tl2  1  0.00000000  0.25014600  0.00000000  1
  Tl  Tl3  1  0.00000000  0.74985400  0.00000000  1
  P  P4  1  0.00000000  0.00000000  0.33791900  1
  P  P5  1  0.00000000  0.00000000  0.66208100  1
  P  P6  1  0.50000000  0.50000000  0.83791900  1
  P  P7  1  0.50000000  0.50000000  0.16208100  1
  S  S8  1  0.76337000  0.00000000  0.22325800  1
  S  S9  1  0.76337000  0.00000000  0.77674200  1
  S  S10  1  0.00000000  0.81374900  0.50000000  1
  S  S11  1  0.00000000  0.18625100  0.50000000  1
  S  S12  1  0.23663000  0.00000000  0.77674200  1
  S  S13  1  0.23663000  0.00000000  0.22325800  1
  S  S14  1  0.26337000  0.50000000  0.72325800  1
  S  S15  1  0.26337000  0.50000000  0.27674200  1
  S  S16  1  0.50000000  0.31374900  0.00000000  1
  S  S17  1  0.50000000  0.68625100  0.00000000  1
  S  S18  1  0.73663000  0.50000000  0.27674200  1
  S  S19  1  0.73663000  0.50000000  0.72325800  1
