# generated using pymatgen
data_Zn(PtO2)3
_symmetry_space_group_name_H-M   'P 1'
_cell_length_a   7.20485000
_cell_length_b   10.06334600
_cell_length_c   3.22384500
_cell_angle_alpha   90.00000000
_cell_angle_beta   90.00000000
_cell_angle_gamma   90.00000000
_symmetry_Int_Tables_number   1
_chemical_formula_structural   Zn(PtO2)3
_chemical_formula_sum   'Zn2 Pt6 O12'
_cell_volume   233.74455427
_cell_formula_units_Z   2
loop_
 _symmetry_equiv_pos_site_id
 _symmetry_equiv_pos_as_xyz
  1  'x, y, z'
loop_
 _atom_site_type_symbol
 _atom_site_label
 _atom_site_symmetry_multiplicity
 _atom_site_fract_x
 _atom_site_fract_y
 _atom_site_fract_z
 _atom_site_occupancy
  Zn  Zn0  1  0.50000000  0.00000000  0.00000000  1
  Zn  Zn1  1  0.00000000  0.50000000  0.00000000  1
  Pt  Pt2  1  0.25000000  0.75000000  0.50000000  1
  Pt  Pt3  1  0.00000000  0.00000000  0.00000000  1
  Pt  Pt4  1  0.25000000  0.25000000  0.50000000  1
  Pt  Pt5  1  0.75000000  0.25000000  0.50000000  1
  Pt  Pt6  1  0.50000000  0.50000000  0.00000000  1
  Pt  Pt7  1  0.75000000  0.75000000  0.50000000  1
  O  O8  1  0.21064200  0.12749800  0.00000000  1
  O  O9  1  0.78935800  0.87250200  0.00000000  1
  O  O10  1  0.21064200  0.87250200  0.00000000  1
  O  O11  1  0.78935800  0.12749800  0.00000000  1
  O  O12  1  0.50000000  0.85107400  0.50000000  1
  O  O13  1  0.50000000  0.14892600  0.50000000  1
  O  O14  1  0.71064200  0.62749800  0.00000000  1
  O  O15  1  0.28935800  0.37250200  0.00000000  1
  O  O16  1  0.71064200  0.37250200  0.00000000  1
  O  O17  1  0.28935800  0.62749800  0.00000000  1
  O  O18  1  0.00000000  0.35107400  0.50000000  1
  O  O19  1  0.00000000  0.64892600  0.50000000  1
