# generated using pymatgen
data_Sr2SnHg
_symmetry_space_group_name_H-M   'P 1'
_cell_length_a   8.10161000
_cell_length_b   8.10161000
_cell_length_c   8.10161000
_cell_angle_alpha   90.00000000
_cell_angle_beta   90.00000000
_cell_angle_gamma   90.00000000
_symmetry_Int_Tables_number   1
_chemical_formula_structural   Sr2SnHg
_chemical_formula_sum   'Sr8 Sn4 Hg4'
_cell_volume   531.75795929
_cell_formula_units_Z   4
loop_
 _symmetry_equiv_pos_site_id
 _symmetry_equiv_pos_as_xyz
  1  'x, y, z'
loop_
 _atom_site_type_symbol
 _atom_site_label
 _atom_site_symmetry_multiplicity
 _atom_site_fract_x
 _atom_site_fract_y
 _atom_site_fract_z
 _atom_site_occupancy
  Sr  Sr0  1  0.25000000  0.75000000  0.75000000  1
  Sr  Sr1  1  0.25000000  0.25000000  0.75000000  1
  Sr  Sr2  1  0.25000000  0.25000000  0.25000000  1
  Sr  Sr3  1  0.25000000  0.75000000  0.25000000  1
  Sr  Sr4  1  0.75000000  0.75000000  0.25000000  1
  Sr  Sr5  1  0.75000000  0.25000000  0.25000000  1
  Sr  Sr6  1  0.75000000  0.25000000  0.75000000  1
  Sr  Sr7  1  0.75000000  0.75000000  0.75000000  1
  Sn  Sn8  1  0.00000000  0.00000000  0.00000000  1
  Sn  Sn9  1  0.00000000  0.50000000  0.50000000  1
  Sn  Sn10  1  0.50000000  0.00000000  0.50000000  1
  Sn  Sn11  1  0.50000000  0.50000000  0.00000000  1
  Hg  Hg12  1  0.50000000  0.00000000  0.00000000  1
  Hg  Hg13  1  0.50000000  0.50000000  0.50000000  1
  Hg  Hg14  1  0.00000000  0.00000000  0.50000000  1
  Hg  Hg15  1  0.00000000  0.50000000  0.00000000  1
