# generated using pymatgen
data_La2Ti2O7
_symmetry_space_group_name_H-M   'P 1'
_cell_length_a   3.90419600
_cell_length_b   25.84751000
_cell_length_c   5.67660600
_cell_angle_alpha   90.00000000
_cell_angle_beta   90.00000000
_cell_angle_gamma   90.00000000
_symmetry_Int_Tables_number   1
_chemical_formula_structural   La2Ti2O7
_chemical_formula_sum   'La8 Ti8 O28'
_cell_volume   572.84757121
_cell_formula_units_Z   4
loop_
 _symmetry_equiv_pos_site_id
 _symmetry_equiv_pos_as_xyz
  1  'x, y, z'
loop_
 _atom_site_type_symbol
 _atom_site_label
 _atom_site_symmetry_multiplicity
 _atom_site_fract_x
 _atom_site_fract_y
 _atom_site_fract_z
 _atom_site_occupancy
  La  La0  1  0.00000000  0.70292100  0.65125400  1
  La  La1  1  0.50000000  0.79707900  0.15125400  1
  La  La2  1  0.00000000  0.55081800  0.23253000  1
  La  La3  1  0.50000000  0.94918200  0.73253000  1
  La  La4  1  0.50000000  0.20292100  0.65125400  1
  La  La5  1  0.00000000  0.29707900  0.15125400  1
  La  La6  1  0.50000000  0.05081800  0.23253000  1
  La  La7  1  0.00000000  0.44918200  0.73253000  1
  Ti  Ti8  1  0.50000000  0.66268700  0.19796500  1
  Ti  Ti9  1  0.00000000  0.83731300  0.69796500  1
  Ti  Ti10  1  0.50000000  0.56244500  0.73828800  1
  Ti  Ti11  1  0.00000000  0.93755500  0.23828800  1
  Ti  Ti12  1  0.00000000  0.16268700  0.19796500  1
  Ti  Ti13  1  0.50000000  0.33731300  0.69796500  1
  Ti  Ti14  1  0.00000000  0.06244500  0.73828800  1
  Ti  Ti15  1  0.50000000  0.43755500  0.23828800  1
  O  O16  1  0.50000000  0.72001700  0.41021800  1
  O  O17  1  0.00000000  0.77998300  0.91021800  1
  O  O18  1  0.50000000  0.61955800  0.56399700  1
  O  O19  1  0.00000000  0.88044200  0.06399700  1
  O  O20  1  0.00000000  0.65264400  0.24852600  1
  O  O21  1  0.50000000  0.84735600  0.74852600  1
  O  O22  1  0.00000000  0.54946200  0.78012300  1
  O  O23  1  0.50000000  0.95053800  0.28012300  1
  O  O24  1  0.50000000  0.51333200  0.48278600  1
  O  O25  1  0.00000000  0.98666800  0.98278600  1
  O  O26  1  0.00000000  0.90851500  0.56496100  1
  O  O27  1  0.50000000  0.59148500  0.06496100  1
  O  O28  1  0.00000000  0.79855100  0.43375200  1
  O  O29  1  0.50000000  0.70144900  0.93375200  1
  O  O30  1  0.00000000  0.22001700  0.41021800  1
  O  O31  1  0.50000000  0.27998300  0.91021800  1
  O  O32  1  0.00000000  0.11955800  0.56399700  1
  O  O33  1  0.50000000  0.38044200  0.06399700  1
  O  O34  1  0.50000000  0.15264400  0.24852600  1
  O  O35  1  0.00000000  0.34735600  0.74852600  1
  O  O36  1  0.50000000  0.04946200  0.78012300  1
  O  O37  1  0.00000000  0.45053800  0.28012300  1
  O  O38  1  0.00000000  0.01333200  0.48278600  1
  O  O39  1  0.50000000  0.48666800  0.98278600  1
  O  O40  1  0.50000000  0.40851500  0.56496100  1
  O  O41  1  0.00000000  0.09148500  0.06496100  1
  O  O42  1  0.50000000  0.29855100  0.43375200  1
  O  O43  1  0.00000000  0.20144900  0.93375200  1
