# generated using pymatgen
data_Dy2S2O
_symmetry_space_group_name_H-M   'P 1'
_cell_length_a   3.81261800
_cell_length_b   6.74807400
_cell_length_c   15.63546600
_cell_angle_alpha   90.00000000
_cell_angle_beta   90.00000000
_cell_angle_gamma   90.00000000
_symmetry_Int_Tables_number   1
_chemical_formula_structural   Dy2S2O
_chemical_formula_sum   'Dy8 S8 O4'
_cell_volume   402.26658617
_cell_formula_units_Z   4
loop_
 _symmetry_equiv_pos_site_id
 _symmetry_equiv_pos_as_xyz
  1  'x, y, z'
loop_
 _atom_site_type_symbol
 _atom_site_label
 _atom_site_symmetry_multiplicity
 _atom_site_fract_x
 _atom_site_fract_y
 _atom_site_fract_z
 _atom_site_occupancy
  Dy  Dy0  1  0.25000000  0.24395100  0.83543200  1
  Dy  Dy1  1  0.75000000  0.75604900  0.16456800  1
  Dy  Dy2  1  0.75000000  0.74395100  0.66456800  1
  Dy  Dy3  1  0.25000000  0.25604900  0.33543200  1
  Dy  Dy4  1  0.25000000  0.79371300  0.95944000  1
  Dy  Dy5  1  0.75000000  0.20628700  0.04056000  1
  Dy  Dy6  1  0.75000000  0.29371300  0.54056000  1
  Dy  Dy7  1  0.25000000  0.70628700  0.45944000  1
  S  S8  1  0.25000000  0.04577100  0.18131000  1
  S  S9  1  0.25000000  0.98668500  0.59984900  1
  S  S10  1  0.75000000  0.48668500  0.90015100  1
  S  S11  1  0.25000000  0.51331500  0.09984900  1
  S  S12  1  0.75000000  0.95422900  0.81869000  1
  S  S13  1  0.75000000  0.54577100  0.31869000  1
  S  S14  1  0.25000000  0.45422900  0.68131000  1
  S  S15  1  0.75000000  0.01331500  0.40015100  1
  O  O16  1  0.75000000  0.86847300  0.03081500  1
  O  O17  1  0.75000000  0.63152700  0.53081500  1
  O  O18  1  0.25000000  0.36847300  0.46918500  1
  O  O19  1  0.25000000  0.13152700  0.96918500  1
