# generated using pymatgen
data_PtF4
_symmetry_space_group_name_H-M   'P 1'
_cell_length_a   5.97987000
_cell_length_b   9.48004600
_cell_length_c   9.68336800
_cell_angle_alpha   90.00000000
_cell_angle_beta   90.00000000
_cell_angle_gamma   90.00000000
_symmetry_Int_Tables_number   1
_chemical_formula_structural   PtF4
_chemical_formula_sum   'Pt8 F32'
_cell_volume   548.94473513
_cell_formula_units_Z   8
loop_
 _symmetry_equiv_pos_site_id
 _symmetry_equiv_pos_as_xyz
  1  'x, y, z'
loop_
 _atom_site_type_symbol
 _atom_site_label
 _atom_site_symmetry_multiplicity
 _atom_site_fract_x
 _atom_site_fract_y
 _atom_site_fract_z
 _atom_site_occupancy
  Pt  Pt0  1  0.75330900  0.00000000  0.50000000  1
  Pt  Pt1  1  0.00330900  0.25000000  0.75000000  1
  Pt  Pt2  1  0.25330900  0.00000000  0.00000000  1
  Pt  Pt3  1  0.50330900  0.25000000  0.25000000  1
  Pt  Pt4  1  0.25330900  0.50000000  0.50000000  1
  Pt  Pt5  1  0.50330900  0.75000000  0.75000000  1
  Pt  Pt6  1  0.75330900  0.50000000  0.00000000  1
  Pt  Pt7  1  0.00330900  0.75000000  0.25000000  1
  F  F8  1  0.28641850  0.86401700  0.65893850  1
  F  F9  1  0.28641850  0.63598300  0.84106150  1
  F  F10  1  0.01092650  0.11397350  0.59130400  1
  F  F11  1  0.51092650  0.88602650  0.90869600  1
  F  F12  1  0.26092650  0.13602650  0.84130400  1
  F  F13  1  0.26092650  0.36397350  0.65869600  1
  F  F14  1  0.03641850  0.61401700  0.59106150  1
  F  F15  1  0.03641850  0.88598300  0.90893850  1
  F  F16  1  0.78641850  0.86401700  0.15893850  1
  F  F17  1  0.78641850  0.63598300  0.34106150  1
  F  F18  1  0.51092650  0.11397350  0.09130400  1
  F  F19  1  0.01092650  0.88602650  0.40869600  1
  F  F20  1  0.76092650  0.13602650  0.34130400  1
  F  F21  1  0.76092650  0.36397350  0.15869600  1
  F  F22  1  0.53641850  0.61401700  0.09106150  1
  F  F23  1  0.53641850  0.88598300  0.40893850  1
  F  F24  1  0.78641850  0.36401700  0.65893850  1
  F  F25  1  0.78641850  0.13598300  0.84106150  1
  F  F26  1  0.51092650  0.61397350  0.59130400  1
  F  F27  1  0.01092650  0.38602650  0.90869600  1
  F  F28  1  0.76092650  0.63602650  0.84130400  1
  F  F29  1  0.76092650  0.86397350  0.65869600  1
  F  F30  1  0.53641850  0.11401700  0.59106150  1
  F  F31  1  0.53641850  0.38598300  0.90893850  1
  F  F32  1  0.28641850  0.36401700  0.15893850  1
  F  F33  1  0.28641850  0.13598300  0.34106150  1
  F  F34  1  0.01092650  0.61397350  0.09130400  1
  F  F35  1  0.51092650  0.38602650  0.40869600  1
  F  F36  1  0.26092650  0.63602650  0.34130400  1
  F  F37  1  0.26092650  0.86397350  0.15869600  1
  F  F38  1  0.03641850  0.11401700  0.09106150  1
  F  F39  1  0.03641850  0.38598300  0.40893850  1
