# generated using pymatgen
data_Li2MnCr2O6
_symmetry_space_group_name_H-M   'P 1'
_cell_length_a   12.95948800
_cell_length_b   8.86006400
_cell_length_c   5.97567849
_cell_angle_alpha   90.00000000
_cell_angle_beta   103.86073524
_cell_angle_gamma   90.00000000
_symmetry_Int_Tables_number   1
_chemical_formula_structural   Li2MnCr2O6
_chemical_formula_sum   'Li12 Mn6 Cr12 O36'
_cell_volume   666.15896211
_cell_formula_units_Z   6
loop_
 _symmetry_equiv_pos_site_id
 _symmetry_equiv_pos_as_xyz
  1  'x, y, z'
loop_
 _atom_site_type_symbol
 _atom_site_label
 _atom_site_symmetry_multiplicity
 _atom_site_fract_x
 _atom_site_fract_y
 _atom_site_fract_z
 _atom_site_occupancy
  Li  Li0  1  0.33192300  0.83360200  0.16858200  1
  Li  Li1  1  0.33192300  0.16639800  0.16858200  1
  Li  Li2  1  0.66807700  0.16639800  0.83141800  1
  Li  Li3  1  0.66807700  0.83360200  0.83141800  1
  Li  Li4  1  0.50000000  0.33175200  0.50000000  1
  Li  Li5  1  0.50000000  0.66824800  0.50000000  1
  Li  Li6  1  0.83192300  0.33360200  0.16858200  1
  Li  Li7  1  0.83192300  0.66639800  0.16858200  1
  Li  Li8  1  0.16807700  0.66639800  0.83141800  1
  Li  Li9  1  0.16807700  0.33360200  0.83141800  1
  Li  Li10  1  0.00000000  0.83175200  0.50000000  1
  Li  Li11  1  0.00000000  0.16824800  0.50000000  1
  Mn  Mn12  1  0.50000000  0.33470300  0.00000000  1
  Mn  Mn13  1  0.50000000  0.00000000  0.00000000  1
  Mn  Mn14  1  0.50000000  0.66529700  0.00000000  1
  Mn  Mn15  1  0.00000000  0.83470300  0.00000000  1
  Mn  Mn16  1  0.00000000  0.50000000  0.00000000  1
  Mn  Mn17  1  0.00000000  0.16529700  0.00000000  1
  Cr  Cr18  1  0.33204850  0.83576250  0.66650300  1
  Cr  Cr19  1  0.83379400  0.00000000  0.66703900  1
  Cr  Cr20  1  0.33204850  0.16423750  0.66650300  1
  Cr  Cr21  1  0.66795150  0.16423750  0.33349700  1
  Cr  Cr22  1  0.66795150  0.83576250  0.33349700  1
  Cr  Cr23  1  0.16620600  0.00000000  0.33296100  1
  Cr  Cr24  1  0.83204850  0.33576250  0.66650300  1
  Cr  Cr25  1  0.33379400  0.50000000  0.66703900  1
  Cr  Cr26  1  0.83204850  0.66423750  0.66650300  1
  Cr  Cr27  1  0.16795150  0.66423750  0.33349700  1
  Cr  Cr28  1  0.16795150  0.33576250  0.33349700  1
  Cr  Cr29  1  0.66620600  0.50000000  0.33296100  1
  O  O30  1  0.99323900  0.00000000  0.77544200  1
  O  O31  1  0.32868300  0.67160600  0.43953800  1
  O  O32  1  0.32868300  0.32839400  0.43953800  1
  O  O33  1  0.00676100  0.00000000  0.22455800  1
  O  O34  1  0.34496500  0.67108800  0.90238700  1
  O  O35  1  0.34496500  0.32891200  0.90238700  1
  O  O36  1  0.67131700  0.32839400  0.56046200  1
  O  O37  1  0.67713500  0.00000000  0.57067200  1
  O  O38  1  0.67131700  0.67160600  0.56046200  1
  O  O39  1  0.65503500  0.32891200  0.09761300  1
  O  O40  1  0.65189400  0.00000000  0.08776600  1
  O  O41  1  0.65503500  0.67108800  0.09761300  1
  O  O42  1  0.49599850  0.17002650  0.78162000  1
  O  O43  1  0.49599850  0.82997350  0.78162000  1
  O  O44  1  0.32286500  0.00000000  0.42932800  1
  O  O45  1  0.50400150  0.17002650  0.21838000  1
  O  O46  1  0.50400150  0.82997350  0.21838000  1
  O  O47  1  0.34810600  0.00000000  0.91223400  1
  O  O48  1  0.49323900  0.50000000  0.77544200  1
  O  O49  1  0.82868300  0.17160600  0.43953800  1
  O  O50  1  0.82868300  0.82839400  0.43953800  1
  O  O51  1  0.50676100  0.50000000  0.22455800  1
  O  O52  1  0.84496500  0.17108800  0.90238700  1
  O  O53  1  0.84496500  0.82891200  0.90238700  1
  O  O54  1  0.17131700  0.82839400  0.56046200  1
  O  O55  1  0.17713500  0.50000000  0.57067200  1
  O  O56  1  0.17131700  0.17160600  0.56046200  1
  O  O57  1  0.15503500  0.82891200  0.09761300  1
  O  O58  1  0.15189400  0.50000000  0.08776600  1
  O  O59  1  0.15503500  0.17108800  0.09761300  1
  O  O60  1  0.99599850  0.67002650  0.78162000  1
  O  O61  1  0.99599850  0.32997350  0.78162000  1
  O  O62  1  0.82286500  0.50000000  0.42932800  1
  O  O63  1  0.00400150  0.67002650  0.21838000  1
  O  O64  1  0.00400150  0.32997350  0.21838000  1
  O  O65  1  0.84810600  0.50000000  0.91223400  1
