# generated using pymatgen
data_LiLaNb2O7
_symmetry_space_group_name_H-M   'P 1'
_cell_length_a   3.91942800
_cell_length_b   3.91942800
_cell_length_c   20.64929000
_cell_angle_alpha   90.00000000
_cell_angle_beta   90.00000000
_cell_angle_gamma   90.00000000
_symmetry_Int_Tables_number   1
_chemical_formula_structural   LiLaNb2O7
_chemical_formula_sum   'Li2 La2 Nb4 O14'
_cell_volume   317.21265528
_cell_formula_units_Z   2
loop_
 _symmetry_equiv_pos_site_id
 _symmetry_equiv_pos_as_xyz
  1  'x, y, z'
loop_
 _atom_site_type_symbol
 _atom_site_label
 _atom_site_symmetry_multiplicity
 _atom_site_fract_x
 _atom_site_fract_y
 _atom_site_fract_z
 _atom_site_occupancy
  Li  Li0  1  0.00000000  0.50000000  0.25000000  1
  Li  Li1  1  0.50000000  0.00000000  0.75000000  1
  La  La2  1  0.00000000  0.00000000  0.00000000  1
  La  La3  1  0.50000000  0.50000000  0.50000000  1
  Nb  Nb4  1  0.50000000  0.50000000  0.11134000  1
  Nb  Nb5  1  0.00000000  0.00000000  0.38866000  1
  Nb  Nb6  1  0.00000000  0.00000000  0.61134000  1
  Nb  Nb7  1  0.50000000  0.50000000  0.88866000  1
  O  O8  1  0.00000000  0.50000000  0.41008800  1
  O  O9  1  0.50000000  0.50000000  0.00000000  1
  O  O10  1  0.00000000  0.50000000  0.08991200  1
  O  O11  1  0.50000000  0.50000000  0.19913900  1
  O  O12  1  0.50000000  0.00000000  0.41117300  1
  O  O13  1  0.00000000  0.00000000  0.30086100  1
  O  O14  1  0.50000000  0.00000000  0.08882700  1
  O  O15  1  0.50000000  0.00000000  0.91008800  1
  O  O16  1  0.00000000  0.00000000  0.50000000  1
  O  O17  1  0.50000000  0.00000000  0.58991200  1
  O  O18  1  0.00000000  0.00000000  0.69913900  1
  O  O19  1  0.00000000  0.50000000  0.91117300  1
  O  O20  1  0.50000000  0.50000000  0.80086100  1
  O  O21  1  0.00000000  0.50000000  0.58882700  1
