# generated using pymatgen
data_Fe2OF3
_symmetry_space_group_name_H-M   'P 1'
_cell_length_a   9.73009000
_cell_length_b   6.22216200
_cell_length_c   10.72591667
_cell_angle_alpha   90.00000000
_cell_angle_beta   115.32116723
_cell_angle_gamma   90.00000000
_symmetry_Int_Tables_number   1
_chemical_formula_structural   Fe2OF3
_chemical_formula_sum   'Fe16 O8 F24'
_cell_volume   586.98202041
_cell_formula_units_Z   8
loop_
 _symmetry_equiv_pos_site_id
 _symmetry_equiv_pos_as_xyz
  1  'x, y, z'
loop_
 _atom_site_type_symbol
 _atom_site_label
 _atom_site_symmetry_multiplicity
 _atom_site_fract_x
 _atom_site_fract_y
 _atom_site_fract_z
 _atom_site_occupancy
  Fe  Fe0  1  0.87673050  0.25556550  0.75007300  1
  Fe  Fe1  1  0.62326950  0.24443450  0.24992700  1
  Fe  Fe2  1  0.00000000  0.00000000  0.50000000  1
  Fe  Fe3  1  0.50000000  0.00000000  0.50000000  1
  Fe  Fe4  1  0.26207700  0.50000000  0.98008900  1
  Fe  Fe5  1  0.62326950  0.75556550  0.24992700  1
  Fe  Fe6  1  0.87673050  0.74443450  0.75007300  1
  Fe  Fe7  1  0.23792300  0.00000000  0.01991100  1
  Fe  Fe8  1  0.37673050  0.75556550  0.75007300  1
  Fe  Fe9  1  0.12326950  0.74443450  0.24992700  1
  Fe  Fe10  1  0.50000000  0.50000000  0.50000000  1
  Fe  Fe11  1  0.00000000  0.50000000  0.50000000  1
  Fe  Fe12  1  0.76207700  0.00000000  0.98008900  1
  Fe  Fe13  1  0.12326950  0.25556550  0.24992700  1
  Fe  Fe14  1  0.37673050  0.24443450  0.75007300  1
  Fe  Fe15  1  0.73792300  0.50000000  0.01991100  1
  O  O16  1  0.92073700  0.50000000  0.65980300  1
  O  O17  1  0.57926300  0.00000000  0.34019700  1
  O  O18  1  0.83610100  0.00000000  0.83413500  1
  O  O19  1  0.66389900  0.50000000  0.16586500  1
  O  O20  1  0.42073700  0.00000000  0.65980300  1
  O  O21  1  0.07926300  0.50000000  0.34019700  1
  O  O22  1  0.33610100  0.50000000  0.83413500  1
  O  O23  1  0.16389900  0.00000000  0.16586500  1
  F  F24  1  0.15651050  0.75447150  0.60436400  1
  F  F25  1  0.82268200  0.50000000  0.85466500  1
  F  F26  1  0.67731800  0.00000000  0.14533500  1
  F  F27  1  0.92669500  0.00000000  0.64845200  1
  F  F28  1  0.09621700  0.74754100  0.89649500  1
  F  F29  1  0.34348950  0.74552850  0.39563600  1
  F  F30  1  0.09621700  0.25245900  0.89649500  1
  F  F31  1  0.40378300  0.24754100  0.10350500  1
  F  F32  1  0.65651050  0.74552850  0.60436400  1
  F  F33  1  0.40378300  0.75245900  0.10350500  1
  F  F34  1  0.57330500  0.50000000  0.35154800  1
  F  F35  1  0.84348950  0.75447150  0.39563600  1
  F  F36  1  0.65651050  0.25447150  0.60436400  1
  F  F37  1  0.32268200  0.00000000  0.85466500  1
  F  F38  1  0.17731800  0.50000000  0.14533500  1
  F  F39  1  0.42669500  0.50000000  0.64845200  1
  F  F40  1  0.59621700  0.24754100  0.89649500  1
  F  F41  1  0.84348950  0.24552850  0.39563600  1
  F  F42  1  0.59621700  0.75245900  0.89649500  1
  F  F43  1  0.90378300  0.74754100  0.10350500  1
  F  F44  1  0.15651050  0.24552850  0.60436400  1
  F  F45  1  0.90378300  0.25245900  0.10350500  1
  F  F46  1  0.07330500  0.00000000  0.35154800  1
  F  F47  1  0.34348950  0.25447150  0.39563600  1
