# generated using pymatgen
data_KPS3
_symmetry_space_group_name_H-M   'P 1'
_cell_length_a   7.00638200
_cell_length_b   8.69330800
_cell_length_c   9.28334600
_cell_angle_alpha   90.00000000
_cell_angle_beta   90.00000000
_cell_angle_gamma   90.00000000
_symmetry_Int_Tables_number   1
_chemical_formula_structural   KPS3
_chemical_formula_sum   'K4 P4 S12'
_cell_volume   565.43594880
_cell_formula_units_Z   4
loop_
 _symmetry_equiv_pos_site_id
 _symmetry_equiv_pos_as_xyz
  1  'x, y, z'
loop_
 _atom_site_type_symbol
 _atom_site_label
 _atom_site_symmetry_multiplicity
 _atom_site_fract_x
 _atom_site_fract_y
 _atom_site_fract_z
 _atom_site_occupancy
  K  K0  1  0.50000000  0.75108700  0.50000000  1
  K  K1  1  0.50000000  0.24891300  0.50000000  1
  K  K2  1  0.00000000  0.25108700  0.00000000  1
  K  K3  1  0.00000000  0.74891300  0.00000000  1
  P  P4  1  0.00000000  0.00000000  0.33991900  1
  P  P5  1  0.00000000  0.00000000  0.66008100  1
  P  P6  1  0.50000000  0.50000000  0.83991900  1
  P  P7  1  0.50000000  0.50000000  0.16008100  1
  S  S8  1  0.75767100  0.00000000  0.22997500  1
  S  S9  1  0.75767100  0.00000000  0.77002500  1
  S  S10  1  0.00000000  0.81964800  0.50000000  1
  S  S11  1  0.00000000  0.18035200  0.50000000  1
  S  S12  1  0.24232900  0.00000000  0.77002500  1
  S  S13  1  0.24232900  0.00000000  0.22997500  1
  S  S14  1  0.25767100  0.50000000  0.72997500  1
  S  S15  1  0.25767100  0.50000000  0.27002500  1
  S  S16  1  0.50000000  0.31964800  0.00000000  1
  S  S17  1  0.50000000  0.68035200  0.00000000  1
  S  S18  1  0.74232900  0.50000000  0.27002500  1
  S  S19  1  0.74232900  0.50000000  0.72997500  1
