# generated using pymatgen
data_Na2ZnS2
_symmetry_space_group_name_H-M   'P 1'
_cell_length_a   5.97689600
_cell_length_b   6.46268200
_cell_length_c   11.18525200
_cell_angle_alpha   90.00000000
_cell_angle_beta   90.00000000
_cell_angle_gamma   90.00000000
_symmetry_Int_Tables_number   1
_chemical_formula_structural   Na2ZnS2
_chemical_formula_sum   'Na8 Zn4 S8'
_cell_volume   432.05024806
_cell_formula_units_Z   4
loop_
 _symmetry_equiv_pos_site_id
 _symmetry_equiv_pos_as_xyz
  1  'x, y, z'
loop_
 _atom_site_type_symbol
 _atom_site_label
 _atom_site_symmetry_multiplicity
 _atom_site_fract_x
 _atom_site_fract_y
 _atom_site_fract_z
 _atom_site_occupancy
  Na  Na0  1  0.50000000  0.84902800  0.35761700  1
  Na  Na1  1  0.00000000  0.65097200  0.14238300  1
  Na  Na2  1  0.50000000  0.34902800  0.14238300  1
  Na  Na3  1  0.00000000  0.15097200  0.35761700  1
  Na  Na4  1  0.00000000  0.34902800  0.85761700  1
  Na  Na5  1  0.50000000  0.15097200  0.64238300  1
  Na  Na6  1  0.00000000  0.84902800  0.64238300  1
  Na  Na7  1  0.50000000  0.65097200  0.85761700  1
  Zn  Zn8  1  0.75000000  0.00000000  0.00000000  1
  Zn  Zn9  1  0.25000000  0.00000000  0.00000000  1
  Zn  Zn10  1  0.25000000  0.50000000  0.50000000  1
  Zn  Zn11  1  0.75000000  0.50000000  0.50000000  1
  S  S12  1  0.00000000  0.71349650  0.38909350  1
  S  S13  1  0.50000000  0.78650350  0.11090650  1
  S  S14  1  0.00000000  0.21349650  0.11090650  1
  S  S15  1  0.50000000  0.28650350  0.38909350  1
  S  S16  1  0.50000000  0.21349650  0.88909350  1
  S  S17  1  0.00000000  0.28650350  0.61090650  1
  S  S18  1  0.50000000  0.71349650  0.61090650  1
  S  S19  1  0.00000000  0.78650350  0.88909350  1
