# generated using pymatgen
data_K2MnSe2
_symmetry_space_group_name_H-M   'P 1'
_cell_length_a   6.57325600
_cell_length_b   7.15098200
_cell_length_c   13.33347400
_cell_angle_alpha   90.00000000
_cell_angle_beta   90.00000000
_cell_angle_gamma   90.00000000
_symmetry_Int_Tables_number   1
_chemical_formula_structural   K2MnSe2
_chemical_formula_sum   'K8 Mn4 Se8'
_cell_volume   626.74308323
_cell_formula_units_Z   4
loop_
 _symmetry_equiv_pos_site_id
 _symmetry_equiv_pos_as_xyz
  1  'x, y, z'
loop_
 _atom_site_type_symbol
 _atom_site_label
 _atom_site_symmetry_multiplicity
 _atom_site_fract_x
 _atom_site_fract_y
 _atom_site_fract_z
 _atom_site_occupancy
  K  K0  1  0.50000000  0.83348750  0.35459450  1
  K  K1  1  0.00000000  0.66651250  0.14540550  1
  K  K2  1  0.50000000  0.33348750  0.14540550  1
  K  K3  1  0.00000000  0.16651250  0.35459450  1
  K  K4  1  0.00000000  0.33348750  0.85459450  1
  K  K5  1  0.50000000  0.16651250  0.64540550  1
  K  K6  1  0.00000000  0.83348750  0.64540550  1
  K  K7  1  0.50000000  0.66651250  0.85459450  1
  Mn  Mn8  1  0.75000000  0.00000000  0.00000000  1
  Mn  Mn9  1  0.25000000  0.00000000  0.00000000  1
  Mn  Mn10  1  0.25000000  0.50000000  0.50000000  1
  Mn  Mn11  1  0.75000000  0.50000000  0.50000000  1
  Se  Se12  1  0.00000000  0.19512100  0.10469800  1
  Se  Se13  1  0.50000000  0.30487900  0.39530200  1
  Se  Se14  1  0.00000000  0.69512100  0.39530200  1
  Se  Se15  1  0.50000000  0.80487900  0.10469800  1
  Se  Se16  1  0.50000000  0.69512100  0.60469800  1
  Se  Se17  1  0.00000000  0.80487900  0.89530200  1
  Se  Se18  1  0.50000000  0.19512100  0.89530200  1
  Se  Se19  1  0.00000000  0.30487900  0.60469800  1
