# generated using pymatgen
data_Dy2S2O
_symmetry_space_group_name_H-M   'P 1'
_cell_length_a   6.88150900
_cell_length_b   6.91332900
_cell_length_c   8.29044347
_cell_angle_alpha   90.00000000
_cell_angle_beta   99.31578997
_cell_angle_gamma   90.00000000
_symmetry_Int_Tables_number   1
_chemical_formula_structural   Dy2S2O
_chemical_formula_sum   'Dy8 S8 O4'
_cell_volume   389.20885700
_cell_formula_units_Z   4
loop_
 _symmetry_equiv_pos_site_id
 _symmetry_equiv_pos_as_xyz
  1  'x, y, z'
loop_
 _atom_site_type_symbol
 _atom_site_label
 _atom_site_symmetry_multiplicity
 _atom_site_fract_x
 _atom_site_fract_y
 _atom_site_fract_z
 _atom_site_occupancy
  Dy  Dy0  1  0.25005600  0.05379800  0.13822100  1
  Dy  Dy1  1  0.24994400  0.55379800  0.86177900  1
  Dy  Dy2  1  0.74994400  0.94620200  0.86177900  1
  Dy  Dy3  1  0.75005600  0.44620200  0.13822100  1
  Dy  Dy4  1  0.32131800  0.14336500  0.57625100  1
  Dy  Dy5  1  0.17868200  0.64336500  0.42374900  1
  Dy  Dy6  1  0.67868200  0.85663500  0.42374900  1
  Dy  Dy7  1  0.82131800  0.35663500  0.57625100  1
  S  S8  1  0.03009900  0.72310500  0.07568200  1
  S  S9  1  0.57623600  0.63436900  0.68017600  1
  S  S10  1  0.42376400  0.36563100  0.31982400  1
  S  S11  1  0.07623600  0.86563100  0.68017600  1
  S  S12  1  0.46990100  0.22310500  0.92431800  1
  S  S13  1  0.96990100  0.27689500  0.92431800  1
  S  S14  1  0.53009900  0.77689500  0.07568200  1
  S  S15  1  0.92376400  0.13436900  0.31982400  1
  O  O16  1  0.64953200  0.08719600  0.61705500  1
  O  O17  1  0.14953200  0.41280400  0.61705500  1
  O  O18  1  0.35046800  0.91280400  0.38294500  1
  O  O19  1  0.85046800  0.58719600  0.38294500  1
