# generated using pymatgen
data_SrNi2P2(H2O5)2
_symmetry_space_group_name_H-M   'P 1'
_cell_length_a   9.01934971
_cell_length_b   6.09993900
_cell_length_c   7.43385366
_cell_angle_alpha   90.00000000
_cell_angle_beta   114.23346147
_cell_angle_gamma   90.00000000
_symmetry_Int_Tables_number   1
_chemical_formula_structural   SrNi2P2(H2O5)2
_chemical_formula_sum   'Sr2 Ni4 P4 H8 O20'
_cell_volume   372.95177889
_cell_formula_units_Z   2
loop_
 _symmetry_equiv_pos_site_id
 _symmetry_equiv_pos_as_xyz
  1  'x, y, z'
loop_
 _atom_site_type_symbol
 _atom_site_label
 _atom_site_symmetry_multiplicity
 _atom_site_fract_x
 _atom_site_fract_y
 _atom_site_fract_z
 _atom_site_occupancy
  Sr  Sr0  1  0.00000000  0.00000000  0.50000000  1
  Sr  Sr1  1  0.50000000  0.50000000  0.50000000  1
  Ni  Ni2  1  0.75000000  0.75000000  0.00000000  1
  Ni  Ni3  1  0.25000000  0.75000000  0.00000000  1
  Ni  Ni4  1  0.25000000  0.25000000  0.00000000  1
  Ni  Ni5  1  0.75000000  0.25000000  0.00000000  1
  P  P6  1  0.08742850  0.50000000  0.27769000  1
  P  P7  1  0.91257150  0.50000000  0.72231000  1
  P  P8  1  0.58742850  0.00000000  0.27769000  1
  P  P9  1  0.41257150  0.00000000  0.72231000  1
  H  H10  1  0.75473150  0.50000000  0.29427400  1
  H  H11  1  0.24526850  0.50000000  0.70572600  1
  H  H12  1  0.57597375  0.50000000  0.13449650  1
  H  H13  1  0.42402625  0.50000000  0.86550350  1
  H  H14  1  0.25473150  0.00000000  0.29427400  1
  H  H15  1  0.74526850  0.00000000  0.70572600  1
  H  H16  1  0.07597375  0.00000000  0.13449650  1
  H  H17  1  0.92402625  0.00000000  0.86550350  1
  O  O18  1  0.20521750  0.50000000  0.49685200  1
  O  O19  1  0.79478250  0.50000000  0.50314800  1
  O  O20  1  0.20142500  0.50000000  0.16220800  1
  O  O21  1  0.79857500  0.50000000  0.83779200  1
  O  O22  1  0.68626275  0.50000000  0.14011450  1
  O  O23  1  0.31373725  0.50000000  0.85988550  1
  O  O24  1  0.98023325  0.28912375  0.22689950  1
  O  O25  1  0.98023325  0.71087625  0.22689950  1
  O  O26  1  0.01976675  0.28912375  0.77310050  1
  O  O27  1  0.01976675  0.71087625  0.77310050  1
  O  O28  1  0.70521750  0.00000000  0.49685200  1
  O  O29  1  0.29478250  0.00000000  0.50314800  1
  O  O30  1  0.70142500  0.00000000  0.16220800  1
  O  O31  1  0.29857500  0.00000000  0.83779200  1
  O  O32  1  0.18626275  0.00000000  0.14011450  1
  O  O33  1  0.81373725  0.00000000  0.85988550  1
  O  O34  1  0.48023325  0.78912375  0.22689950  1
  O  O35  1  0.48023325  0.21087625  0.22689950  1
  O  O36  1  0.51976675  0.78912375  0.77310050  1
  O  O37  1  0.51976675  0.21087625  0.77310050  1
