# generated using pymatgen
data_Li6TiFe5O12
_symmetry_space_group_name_H-M   'P 1'
_cell_length_a   5.16059200
_cell_length_b   8.94402600
_cell_length_c   10.19668508
_cell_angle_alpha   90.00000000
_cell_angle_beta   98.18377336
_cell_angle_gamma   90.00000000
_symmetry_Int_Tables_number   1
_chemical_formula_structural   Li6TiFe5O12
_chemical_formula_sum   'Li12 Ti2 Fe10 O24'
_cell_volume   465.85022607
_cell_formula_units_Z   2
loop_
 _symmetry_equiv_pos_site_id
 _symmetry_equiv_pos_as_xyz
  1  'x, y, z'
loop_
 _atom_site_type_symbol
 _atom_site_label
 _atom_site_symmetry_multiplicity
 _atom_site_fract_x
 _atom_site_fract_y
 _atom_site_fract_z
 _atom_site_occupancy
  Li  Li0  1  0.11542750  0.82738350  0.75678100  1
  Li  Li1  1  0.61433850  0.66626250  0.75819300  1
  Li  Li2  1  0.88580100  0.50380100  0.24506600  1
  Li  Li3  1  0.11419900  0.50380100  0.75493400  1
  Li  Li4  1  0.88457250  0.82738350  0.24321900  1
  Li  Li5  1  0.38566150  0.66626250  0.24180700  1
  Li  Li6  1  0.61542750  0.32738350  0.75678100  1
  Li  Li7  1  0.11433850  0.16626250  0.75819300  1
  Li  Li8  1  0.38580100  0.00380100  0.24506600  1
  Li  Li9  1  0.61419900  0.00380100  0.75493400  1
  Li  Li10  1  0.38457250  0.32738350  0.24321900  1
  Li  Li11  1  0.88566150  0.16626250  0.24180700  1
  Ti  Ti12  1  0.00000000  0.99593700  0.00000000  1
  Ti  Ti13  1  0.50000000  0.49593700  0.00000000  1
  Fe  Fe14  1  0.50000000  0.99984600  0.50000000  1
  Fe  Fe15  1  0.00000000  0.66734600  0.00000000  1
  Fe  Fe16  1  0.50000000  0.83548800  0.00000000  1
  Fe  Fe17  1  0.50000000  0.66641800  0.50000000  1
  Fe  Fe18  1  0.00000000  0.83352700  0.50000000  1
  Fe  Fe19  1  0.00000000  0.49984600  0.50000000  1
  Fe  Fe20  1  0.50000000  0.16734600  0.00000000  1
  Fe  Fe21  1  0.00000000  0.33548800  0.00000000  1
  Fe  Fe22  1  0.00000000  0.16641800  0.50000000  1
  Fe  Fe23  1  0.50000000  0.33352700  0.50000000  1
  O  O24  1  0.13317100  0.99920200  0.38787400  1
  O  O25  1  0.28131900  0.99047700  0.88685900  1
  O  O26  1  0.86966600  0.66756500  0.61476600  1
  O  O27  1  0.36848600  0.83355300  0.61333400  1
  O  O28  1  0.79369800  0.84566300  0.88588700  1
  O  O29  1  0.31361000  0.66246600  0.88991000  1
  O  O30  1  0.20630200  0.84566300  0.11411300  1
  O  O31  1  0.68639000  0.66246600  0.11009000  1
  O  O32  1  0.13033400  0.66756500  0.38523400  1
  O  O33  1  0.63151400  0.83355300  0.38666600  1
  O  O34  1  0.71868100  0.99047700  0.11314100  1
  O  O35  1  0.86682900  0.99920200  0.61212600  1
  O  O36  1  0.63317100  0.49920200  0.38787400  1
  O  O37  1  0.78131900  0.49047700  0.88685900  1
  O  O38  1  0.36966600  0.16756500  0.61476600  1
  O  O39  1  0.86848600  0.33355300  0.61333400  1
  O  O40  1  0.29369800  0.34566300  0.88588700  1
  O  O41  1  0.81361000  0.16246600  0.88991000  1
  O  O42  1  0.70630200  0.34566300  0.11411300  1
  O  O43  1  0.18639000  0.16246600  0.11009000  1
  O  O44  1  0.63033400  0.16756500  0.38523400  1
  O  O45  1  0.13151400  0.33355300  0.38666600  1
  O  O46  1  0.21868100  0.49047700  0.11314100  1
  O  O47  1  0.36682900  0.49920200  0.61212600  1
