# generated using pymatgen
data_K2P3
_symmetry_space_group_name_H-M   'P 1'
_cell_length_a   8.69801200
_cell_length_b   9.45837800
_cell_length_c   14.42978400
_cell_angle_alpha   90.00000000
_cell_angle_beta   90.00000000
_cell_angle_gamma   90.00000000
_symmetry_Int_Tables_number   1
_chemical_formula_structural   K2P3
_chemical_formula_sum   'K16 P24'
_cell_volume   1187.12513140
_cell_formula_units_Z   8
loop_
 _symmetry_equiv_pos_site_id
 _symmetry_equiv_pos_as_xyz
  1  'x, y, z'
loop_
 _atom_site_type_symbol
 _atom_site_label
 _atom_site_symmetry_multiplicity
 _atom_site_fract_x
 _atom_site_fract_y
 _atom_site_fract_z
 _atom_site_occupancy
  K  K0  1  0.75000000  0.25000000  0.25000000  1
  K  K1  1  0.75000000  0.75000000  0.25000000  1
  K  K2  1  0.50000000  0.77150300  0.00000000  1
  K  K3  1  0.50000000  0.22849700  0.00000000  1
  K  K4  1  0.75000000  0.75000000  0.75000000  1
  K  K5  1  0.75000000  0.25000000  0.75000000  1
  K  K6  1  0.50000000  0.27150300  0.50000000  1
  K  K7  1  0.50000000  0.72849700  0.50000000  1
  K  K8  1  0.25000000  0.25000000  0.75000000  1
  K  K9  1  0.25000000  0.75000000  0.75000000  1
  K  K10  1  0.00000000  0.77150300  0.50000000  1
  K  K11  1  0.00000000  0.22849700  0.50000000  1
  K  K12  1  0.25000000  0.75000000  0.25000000  1
  K  K13  1  0.25000000  0.25000000  0.25000000  1
  K  K14  1  0.00000000  0.27150300  0.00000000  1
  K  K15  1  0.00000000  0.72849700  0.00000000  1
  P  P16  1  0.28427750  0.00000000  0.42480850  1
  P  P17  1  0.78427750  0.00000000  0.07519150  1
  P  P18  1  0.21572250  0.00000000  0.07519150  1
  P  P19  1  0.71572250  0.00000000  0.42480850  1
  P  P20  1  0.50000000  0.00000000  0.34879700  1
  P  P21  1  0.00000000  0.00000000  0.15120300  1
  P  P22  1  0.28427750  0.50000000  0.92480850  1
  P  P23  1  0.78427750  0.50000000  0.57519150  1
  P  P24  1  0.21572250  0.50000000  0.57519150  1
  P  P25  1  0.71572250  0.50000000  0.92480850  1
  P  P26  1  0.50000000  0.50000000  0.84879700  1
  P  P27  1  0.00000000  0.50000000  0.65120300  1
  P  P28  1  0.78427750  0.00000000  0.92480850  1
  P  P29  1  0.28427750  0.00000000  0.57519150  1
  P  P30  1  0.71572250  0.00000000  0.57519150  1
  P  P31  1  0.21572250  0.00000000  0.92480850  1
  P  P32  1  0.00000000  0.00000000  0.84879700  1
  P  P33  1  0.50000000  0.00000000  0.65120300  1
  P  P34  1  0.78427750  0.50000000  0.42480850  1
  P  P35  1  0.28427750  0.50000000  0.07519150  1
  P  P36  1  0.71572250  0.50000000  0.07519150  1
  P  P37  1  0.21572250  0.50000000  0.42480850  1
  P  P38  1  0.00000000  0.50000000  0.34879700  1
  P  P39  1  0.50000000  0.50000000  0.15120300  1
