# generated using pymatgen
data_Na3AlAs2
_symmetry_space_group_name_H-M   'P 1'
_cell_length_a   6.23650200
_cell_length_b   7.00585000
_cell_length_c   13.69236800
_cell_angle_alpha   90.00000000
_cell_angle_beta   90.00000000
_cell_angle_gamma   90.00000000
_symmetry_Int_Tables_number   1
_chemical_formula_structural   Na3AlAs2
_chemical_formula_sum   'Na12 Al4 As8'
_cell_volume   598.24690893
_cell_formula_units_Z   4
loop_
 _symmetry_equiv_pos_site_id
 _symmetry_equiv_pos_as_xyz
  1  'x, y, z'
loop_
 _atom_site_type_symbol
 _atom_site_label
 _atom_site_symmetry_multiplicity
 _atom_site_fract_x
 _atom_site_fract_y
 _atom_site_fract_z
 _atom_site_occupancy
  Na  Na0  1  0.50000000  0.81457950  0.18947550  1
  Na  Na1  1  0.00000000  0.68542050  0.31052450  1
  Na  Na2  1  0.50000000  0.31457950  0.31052450  1
  Na  Na3  1  0.00000000  0.18542050  0.18947550  1
  Na  Na4  1  0.75000000  0.50000000  0.00000000  1
  Na  Na5  1  0.25000000  0.50000000  0.00000000  1
  Na  Na6  1  0.00000000  0.31457950  0.68947550  1
  Na  Na7  1  0.50000000  0.18542050  0.81052450  1
  Na  Na8  1  0.00000000  0.81457950  0.81052450  1
  Na  Na9  1  0.50000000  0.68542050  0.68947550  1
  Na  Na10  1  0.25000000  0.00000000  0.50000000  1
  Na  Na11  1  0.75000000  0.00000000  0.50000000  1
  Al  Al12  1  0.25000000  0.00000000  0.00000000  1
  Al  Al13  1  0.75000000  0.00000000  0.00000000  1
  Al  Al14  1  0.75000000  0.50000000  0.50000000  1
  Al  Al15  1  0.25000000  0.50000000  0.50000000  1
  As  As16  1  0.00000000  0.79849600  0.10341500  1
  As  As17  1  0.50000000  0.70150400  0.39658500  1
  As  As18  1  0.00000000  0.29849600  0.39658500  1
  As  As19  1  0.50000000  0.20150400  0.10341500  1
  As  As20  1  0.50000000  0.29849600  0.60341500  1
  As  As21  1  0.00000000  0.20150400  0.89658500  1
  As  As22  1  0.50000000  0.79849600  0.89658500  1
  As  As23  1  0.00000000  0.70150400  0.60341500  1
