# generated using pymatgen
data_SrLaCl5
_symmetry_space_group_name_H-M   'P 1'
_cell_length_a   9.89780700
_cell_length_b   15.18477300
_cell_length_c   10.53988659
_cell_angle_alpha   90.00000000
_cell_angle_beta   101.42011450
_cell_angle_gamma   90.00000000
_symmetry_Int_Tables_number   1
_chemical_formula_structural   SrLaCl5
_chemical_formula_sum   'Sr8 La8 Cl40'
_cell_volume   1552.73979883
_cell_formula_units_Z   8
loop_
 _symmetry_equiv_pos_site_id
 _symmetry_equiv_pos_as_xyz
  1  'x, y, z'
loop_
 _atom_site_type_symbol
 _atom_site_label
 _atom_site_symmetry_multiplicity
 _atom_site_fract_x
 _atom_site_fract_y
 _atom_site_fract_z
 _atom_site_occupancy
  Sr  Sr0  1  0.21083500  0.02435900  0.71460600  1
  Sr  Sr1  1  0.31262700  0.48174500  0.66411500  1
  Sr  Sr2  1  0.21083500  0.47564100  0.21460600  1
  Sr  Sr3  1  0.31262700  0.01825500  0.16411500  1
  Sr  Sr4  1  0.68737300  0.98174500  0.83588500  1
  Sr  Sr5  1  0.78916500  0.52435900  0.78539400  1
  Sr  Sr6  1  0.68737300  0.51825500  0.33588500  1
  Sr  Sr7  1  0.78916500  0.97564100  0.28539400  1
  La  La8  1  0.00669900  0.76606600  0.61216400  1
  La  La9  1  0.00669900  0.73393400  0.11216400  1
  La  La10  1  0.43630000  0.73647700  0.95948600  1
  La  La11  1  0.43630000  0.76352300  0.45948600  1
  La  La12  1  0.56370000  0.23647700  0.54051400  1
  La  La13  1  0.56370000  0.26352300  0.04051400  1
  La  La14  1  0.99330100  0.26606600  0.88783600  1
  La  La15  1  0.99330100  0.23393400  0.38783600  1
  Cl  Cl16  1  0.09367100  0.08279500  0.94821500  1
  Cl  Cl17  1  0.07858200  0.44405600  0.85285100  1
  Cl  Cl18  1  0.09367100  0.41720500  0.44821500  1
  Cl  Cl19  1  0.07615100  0.19770900  0.66385000  1
  Cl  Cl20  1  0.07858200  0.05594400  0.35285100  1
  Cl  Cl21  1  0.19806300  0.85257000  0.86134800  1
  Cl  Cl22  1  0.07615100  0.30229100  0.16385000  1
  Cl  Cl23  1  0.28020800  0.26994000  0.96179900  1
  Cl  Cl24  1  0.19806300  0.64743000  0.36134800  1
  Cl  Cl25  1  0.22115400  0.87108700  0.53004600  1
  Cl  Cl26  1  0.25629000  0.66852000  0.69932000  1
  Cl  Cl27  1  0.28020800  0.23006000  0.46179900  1
  Cl  Cl28  1  0.22115400  0.62891300  0.03004600  1
  Cl  Cl29  1  0.25629000  0.83148000  0.19932000  1
  Cl  Cl30  1  0.47928700  0.32732700  0.75521700  1
  Cl  Cl31  1  0.46291800  0.09268900  0.93409900  1
  Cl  Cl32  1  0.52778700  0.56714300  0.88034200  1
  Cl  Cl33  1  0.47221300  0.06714300  0.61965800  1
  Cl  Cl34  1  0.53708200  0.59268900  0.56590100  1
  Cl  Cl35  1  0.52071300  0.82732700  0.74478300  1
  Cl  Cl36  1  0.47928700  0.17267300  0.25521700  1
  Cl  Cl37  1  0.46291800  0.40731100  0.43409900  1
  Cl  Cl38  1  0.52778700  0.93285700  0.38034200  1
  Cl  Cl39  1  0.47221300  0.43285700  0.11965800  1
  Cl  Cl40  1  0.53708200  0.90731100  0.06590100  1
  Cl  Cl41  1  0.52071300  0.67267300  0.24478300  1
  Cl  Cl42  1  0.74371000  0.16852000  0.80068000  1
  Cl  Cl43  1  0.77884600  0.37108700  0.96995400  1
  Cl  Cl44  1  0.71979200  0.76994000  0.53820100  1
  Cl  Cl45  1  0.74371000  0.33148000  0.30068000  1
  Cl  Cl46  1  0.77884600  0.12891300  0.46995400  1
  Cl  Cl47  1  0.80193700  0.35257000  0.63865200  1
  Cl  Cl48  1  0.71979200  0.73006000  0.03820100  1
  Cl  Cl49  1  0.92384900  0.69770900  0.83615000  1
  Cl  Cl50  1  0.80193700  0.14743000  0.13865200  1
  Cl  Cl51  1  0.92141800  0.94405600  0.64714900  1
  Cl  Cl52  1  0.92384900  0.80229100  0.33615000  1
  Cl  Cl53  1  0.90632900  0.58279500  0.55178500  1
  Cl  Cl54  1  0.92141800  0.55594400  0.14714900  1
  Cl  Cl55  1  0.90632900  0.91720500  0.05178500  1
