# generated using pymatgen
data_Li8CeO6
_symmetry_space_group_name_H-M   'P 1'
_cell_length_a   5.65607974
_cell_length_b   5.65607974
_cell_length_c   16.22346397
_cell_angle_alpha   90.00000000
_cell_angle_beta   90.00000000
_cell_angle_gamma   120.00000000
_symmetry_Int_Tables_number   1
_chemical_formula_structural   Li8CeO6
_chemical_formula_sum   'Li24 Ce3 O18'
_cell_volume   449.47471712
_cell_formula_units_Z   3
loop_
 _symmetry_equiv_pos_site_id
 _symmetry_equiv_pos_as_xyz
  1  'x, y, z'
loop_
 _atom_site_type_symbol
 _atom_site_label
 _atom_site_symmetry_multiplicity
 _atom_site_fract_x
 _atom_site_fract_y
 _atom_site_fract_z
 _atom_site_occupancy
  Li  Li0  1  0.33333333  0.66666667  0.31313767  1
  Li  Li1  1  0.64722600  0.02110500  0.12348900  1
  Li  Li2  1  0.97889500  0.62612100  0.12348900  1
  Li  Li3  1  0.37387900  0.35277400  0.12348900  1
  Li  Li4  1  0.01944067  0.31222833  0.20984433  1
  Li  Li5  1  0.68777167  0.70721233  0.20984433  1
  Li  Li6  1  0.33333333  0.66666667  0.02019567  1
  Li  Li7  1  0.29278767  0.98055933  0.20984433  1
  Li  Li8  1  0.00000000  0.00000000  0.64647100  1
  Li  Li9  1  0.31389267  0.35443833  0.45682233  1
  Li  Li10  1  0.64556167  0.95945433  0.45682233  1
  Li  Li11  1  0.04054567  0.68610733  0.45682233  1
  Li  Li12  1  0.68610733  0.64556167  0.54317767  1
  Li  Li13  1  0.35443833  0.04054567  0.54317767  1
  Li  Li14  1  0.00000000  0.00000000  0.35352900  1
  Li  Li15  1  0.95945433  0.31389267  0.54317767  1
  Li  Li16  1  0.66666667  0.33333333  0.97980433  1
  Li  Li17  1  0.98055933  0.68777167  0.79015567  1
  Li  Li18  1  0.31222833  0.29278767  0.79015567  1
  Li  Li19  1  0.70721233  0.01944067  0.79015567  1
  Li  Li20  1  0.35277400  0.97889500  0.87651100  1
  Li  Li21  1  0.02110500  0.37387900  0.87651100  1
  Li  Li22  1  0.66666667  0.33333333  0.68686233  1
  Li  Li23  1  0.62612100  0.64722600  0.87651100  1
  Ce  Ce24  1  0.00000000  0.00000000  0.00000000  1
  Ce  Ce25  1  0.66666667  0.33333333  0.33333333  1
  Ce  Ce26  1  0.33333333  0.66666667  0.66666667  1
  O  O27  1  0.31064800  0.98516100  0.08503500  1
  O  O28  1  0.99215367  0.64398133  0.24829833  1
  O  O29  1  0.35601867  0.34817233  0.24829833  1
  O  O30  1  0.01483900  0.32548700  0.08503500  1
  O  O31  1  0.67451300  0.68935200  0.08503500  1
  O  O32  1  0.65182767  0.00784633  0.24829833  1
  O  O33  1  0.97731467  0.31849433  0.41836833  1
  O  O34  1  0.65882033  0.97731467  0.58163167  1
  O  O35  1  0.02268533  0.68150567  0.58163167  1
  O  O36  1  0.68150567  0.65882033  0.41836833  1
  O  O37  1  0.34117967  0.02268533  0.41836833  1
  O  O38  1  0.31849433  0.34117967  0.58163167  1
  O  O39  1  0.64398133  0.65182767  0.75170167  1
  O  O40  1  0.32548700  0.31064800  0.91496500  1
  O  O41  1  0.68935200  0.01483900  0.91496500  1
  O  O42  1  0.34817233  0.99215367  0.75170167  1
  O  O43  1  0.00784633  0.35601867  0.75170167  1
  O  O44  1  0.98516100  0.67451300  0.91496500  1
