# generated using pymatgen
data_LiAgF4
_symmetry_space_group_name_H-M   'P 1'
_cell_length_a   6.89143200
_cell_length_b   6.47239000
_cell_length_c   3.57640842
_cell_angle_alpha   90.00000000
_cell_angle_beta   98.80212639
_cell_angle_gamma   90.00000000
_symmetry_Int_Tables_number   1
_chemical_formula_structural   LiAgF4
_chemical_formula_sum   'Li2 Ag2 F8'
_cell_volume   157.64350764
_cell_formula_units_Z   2
loop_
 _symmetry_equiv_pos_site_id
 _symmetry_equiv_pos_as_xyz
  1  'x, y, z'
loop_
 _atom_site_type_symbol
 _atom_site_label
 _atom_site_symmetry_multiplicity
 _atom_site_fract_x
 _atom_site_fract_y
 _atom_site_fract_z
 _atom_site_occupancy
  Li  Li0  1  0.00000000  0.00000000  0.00000000  1
  Li  Li1  1  0.50000000  0.50000000  0.00000000  1
  Ag  Ag2  1  0.00000000  0.50000000  0.50000000  1
  Ag  Ag3  1  0.50000000  0.00000000  0.50000000  1
  F  F4  1  0.79144300  0.50000000  0.05869200  1
  F  F5  1  0.00000000  0.80414200  0.50000000  1
  F  F6  1  0.00000000  0.19585800  0.50000000  1
  F  F7  1  0.20855700  0.50000000  0.94130800  1
  F  F8  1  0.29144300  0.00000000  0.05869200  1
  F  F9  1  0.50000000  0.30414200  0.50000000  1
  F  F10  1  0.50000000  0.69585800  0.50000000  1
  F  F11  1  0.70855700  0.00000000  0.94130800  1
