# generated using pymatgen
data_K2VAgS4
_symmetry_space_group_name_H-M   'P 1'
_cell_length_a   5.82956400
_cell_length_b   13.24806600
_cell_length_c   22.72061800
_cell_angle_alpha   90.00000000
_cell_angle_beta   90.00000000
_cell_angle_gamma   90.00000000
_symmetry_Int_Tables_number   1
_chemical_formula_structural   K2VAgS4
_chemical_formula_sum   'K16 V8 Ag8 S32'
_cell_volume   1754.72352114
_cell_formula_units_Z   8
loop_
 _symmetry_equiv_pos_site_id
 _symmetry_equiv_pos_as_xyz
  1  'x, y, z'
loop_
 _atom_site_type_symbol
 _atom_site_label
 _atom_site_symmetry_multiplicity
 _atom_site_fract_x
 _atom_site_fract_y
 _atom_site_fract_z
 _atom_site_occupancy
  K  K0  1  0.25000000  0.75000000  0.56986600  1
  K  K1  1  0.50000000  0.00000000  0.68013400  1
  K  K2  1  0.25000000  0.75000000  0.93013400  1
  K  K3  1  0.00000000  0.00000000  0.81986600  1
  K  K4  1  0.25000000  0.25000000  0.06986600  1
  K  K5  1  0.50000000  0.50000000  0.18013400  1
  K  K6  1  0.25000000  0.25000000  0.43013400  1
  K  K7  1  0.00000000  0.50000000  0.31986600  1
  K  K8  1  0.75000000  0.75000000  0.06986600  1
  K  K9  1  0.00000000  0.00000000  0.18013400  1
  K  K10  1  0.75000000  0.75000000  0.43013400  1
  K  K11  1  0.50000000  0.00000000  0.31986600  1
  K  K12  1  0.75000000  0.25000000  0.56986600  1
  K  K13  1  0.00000000  0.50000000  0.68013400  1
  K  K14  1  0.75000000  0.25000000  0.93013400  1
  K  K15  1  0.50000000  0.50000000  0.81986600  1
  V  V16  1  0.00000000  0.00000000  0.00000000  1
  V  V17  1  0.25000000  0.75000000  0.75000000  1
  V  V18  1  0.00000000  0.50000000  0.50000000  1
  V  V19  1  0.25000000  0.25000000  0.25000000  1
  V  V20  1  0.50000000  0.00000000  0.50000000  1
  V  V21  1  0.75000000  0.75000000  0.25000000  1
  V  V22  1  0.50000000  0.50000000  0.00000000  1
  V  V23  1  0.75000000  0.25000000  0.75000000  1
  Ag  Ag24  1  0.50000000  0.00000000  0.00000000  1
  Ag  Ag25  1  0.75000000  0.75000000  0.75000000  1
  Ag  Ag26  1  0.50000000  0.50000000  0.50000000  1
  Ag  Ag27  1  0.75000000  0.25000000  0.25000000  1
  Ag  Ag28  1  0.00000000  0.00000000  0.50000000  1
  Ag  Ag29  1  0.25000000  0.75000000  0.25000000  1
  Ag  Ag30  1  0.00000000  0.50000000  0.00000000  1
  Ag  Ag31  1  0.25000000  0.25000000  0.75000000  1
  S  S32  1  0.70247900  0.90071100  0.55659500  1
  S  S33  1  0.79752100  0.90071100  0.94340500  1
  S  S34  1  0.70247900  0.59928900  0.94340500  1
  S  S35  1  0.79752100  0.59928900  0.55659500  1
  S  S36  1  0.04752100  0.84928900  0.69340500  1
  S  S37  1  0.04752100  0.65071100  0.80659500  1
  S  S38  1  0.45247900  0.84928900  0.80659500  1
  S  S39  1  0.45247900  0.65071100  0.69340500  1
  S  S40  1  0.70247900  0.40071100  0.05659500  1
  S  S41  1  0.79752100  0.40071100  0.44340500  1
  S  S42  1  0.70247900  0.09928900  0.44340500  1
  S  S43  1  0.79752100  0.09928900  0.05659500  1
  S  S44  1  0.04752100  0.34928900  0.19340500  1
  S  S45  1  0.04752100  0.15071100  0.30659500  1
  S  S46  1  0.45247900  0.34928900  0.30659500  1
  S  S47  1  0.45247900  0.15071100  0.19340500  1
  S  S48  1  0.20247900  0.90071100  0.05659500  1
  S  S49  1  0.29752100  0.90071100  0.44340500  1
  S  S50  1  0.20247900  0.59928900  0.44340500  1
  S  S51  1  0.29752100  0.59928900  0.05659500  1
  S  S52  1  0.54752100  0.84928900  0.19340500  1
  S  S53  1  0.54752100  0.65071100  0.30659500  1
  S  S54  1  0.95247900  0.84928900  0.30659500  1
  S  S55  1  0.95247900  0.65071100  0.19340500  1
  S  S56  1  0.20247900  0.40071100  0.55659500  1
  S  S57  1  0.29752100  0.40071100  0.94340500  1
  S  S58  1  0.20247900  0.09928900  0.94340500  1
  S  S59  1  0.29752100  0.09928900  0.55659500  1
  S  S60  1  0.54752100  0.34928900  0.69340500  1
  S  S61  1  0.54752100  0.15071100  0.80659500  1
  S  S62  1  0.95247900  0.34928900  0.80659500  1
  S  S63  1  0.95247900  0.15071100  0.69340500  1
