# generated using pymatgen
data_Ca10V6O25
_symmetry_space_group_name_H-M   'P 1'
_cell_length_a   10.02518038
_cell_length_b   10.02518038
_cell_length_c   6.80407200
_cell_angle_alpha   90.00000000
_cell_angle_beta   90.00000000
_cell_angle_gamma   120.00000000
_symmetry_Int_Tables_number   1
_chemical_formula_structural   Ca10V6O25
_chemical_formula_sum   'Ca10 V6 O25'
_cell_volume   592.22116403
_cell_formula_units_Z   1
loop_
 _symmetry_equiv_pos_site_id
 _symmetry_equiv_pos_as_xyz
  1  'x, y, z'
loop_
 _atom_site_type_symbol
 _atom_site_label
 _atom_site_symmetry_multiplicity
 _atom_site_fract_x
 _atom_site_fract_y
 _atom_site_fract_z
 _atom_site_occupancy
  Ca  Ca0  1  0.77294200  0.75464700  0.27215500  1
  Ca  Ca1  1  0.22705800  0.24535300  0.72784500  1
  Ca  Ca2  1  0.24535300  0.01829500  0.27215500  1
  Ca  Ca3  1  0.75464700  0.98170500  0.72784500  1
  Ca  Ca4  1  0.98170500  0.22705800  0.27215500  1
  Ca  Ca5  1  0.01829500  0.77294200  0.72784500  1
  Ca  Ca6  1  0.33333333  0.66666667  0.01345300  1
  Ca  Ca7  1  0.66666667  0.33333333  0.98654700  1
  Ca  Ca8  1  0.33333333  0.66666667  0.50817300  1
  Ca  Ca9  1  0.66666667  0.33333333  0.49182700  1
  V  V10  1  0.02655100  0.40202900  0.75885200  1
  V  V11  1  0.97344900  0.59797100  0.24114800  1
  V  V12  1  0.59797100  0.62452200  0.75885200  1
  V  V13  1  0.40202900  0.37547800  0.24114800  1
  V  V14  1  0.37547800  0.97344900  0.75885200  1
  V  V15  1  0.62452200  0.02655100  0.24114800  1
  O  O16  1  0.75965600  0.07384000  0.05473800  1
  O  O17  1  0.24034400  0.92616000  0.94526200  1
  O  O18  1  0.92616000  0.68581600  0.05473800  1
  O  O19  1  0.07384000  0.31418400  0.94526200  1
  O  O20  1  0.31418400  0.24034400  0.05473800  1
  O  O21  1  0.68581600  0.75965600  0.94526200  1
  O  O22  1  0.52806600  0.13320600  0.22459500  1
  O  O23  1  0.47193400  0.86679400  0.77540500  1
  O  O24  1  0.86679400  0.39486000  0.22459500  1
  O  O25  1  0.13320600  0.60514000  0.77540500  1
  O  O26  1  0.60514000  0.47193400  0.22459500  1
  O  O27  1  0.39486000  0.52806600  0.77540500  1
  O  O28  1  0.90206800  0.64237100  0.44738100  1
  O  O29  1  0.09793200  0.35762900  0.55261900  1
  O  O30  1  0.35762900  0.25969700  0.44738100  1
  O  O31  1  0.64237100  0.74030300  0.55261900  1
  O  O32  1  0.74030300  0.09793200  0.44738100  1
  O  O33  1  0.25969700  0.90206800  0.55261900  1
  O  O34  1  0.16824300  0.66863500  0.25629600  1
  O  O35  1  0.83175700  0.33136500  0.74370400  1
  O  O36  1  0.33136500  0.49960800  0.25629600  1
  O  O37  1  0.66863500  0.50039200  0.74370400  1
  O  O38  1  0.50039200  0.83175700  0.25629600  1
  O  O39  1  0.49960800  0.16824300  0.74370400  1
  O  O40  1  0.00000000  0.00000000  0.50000000  1
