# generated using pymatgen
data_BaBiBS4
_symmetry_space_group_name_H-M   'P 1'
_cell_length_a   15.19028400
_cell_length_b   6.27665200
_cell_length_c   7.73514987
_cell_angle_alpha   90.00000000
_cell_angle_beta   100.60347202
_cell_angle_gamma   90.00000000
_symmetry_Int_Tables_number   1
_chemical_formula_structural   BaBiBS4
_chemical_formula_sum   'Ba4 Bi4 B4 S16'
_cell_volume   724.90768611
_cell_formula_units_Z   4
loop_
 _symmetry_equiv_pos_site_id
 _symmetry_equiv_pos_as_xyz
  1  'x, y, z'
loop_
 _atom_site_type_symbol
 _atom_site_label
 _atom_site_symmetry_multiplicity
 _atom_site_fract_x
 _atom_site_fract_y
 _atom_site_fract_z
 _atom_site_occupancy
  Ba  Ba0  1  0.68140100  0.50000000  0.68876100  1
  Ba  Ba1  1  0.81859900  0.00000000  0.31123900  1
  Ba  Ba2  1  0.18140100  0.00000000  0.68876100  1
  Ba  Ba3  1  0.31859900  0.50000000  0.31123900  1
  Bi  Bi4  1  0.54597800  0.00000000  0.25894800  1
  Bi  Bi5  1  0.95402200  0.50000000  0.74105200  1
  Bi  Bi6  1  0.04597800  0.50000000  0.25894800  1
  Bi  Bi7  1  0.45402200  0.00000000  0.74105200  1
  B  B8  1  0.60402000  0.50000000  0.15492800  1
  B  B9  1  0.89598000  0.00000000  0.84507200  1
  B  B10  1  0.10402000  0.00000000  0.15492800  1
  B  B11  1  0.39598000  0.50000000  0.84507200  1
  S  S12  1  0.53490000  0.50000000  0.32031300  1
  S  S13  1  0.63929100  0.74825300  0.06997800  1
  S  S14  1  0.63929100  0.25174700  0.06997800  1
  S  S15  1  0.65753800  0.00000000  0.54705400  1
  S  S16  1  0.84246200  0.50000000  0.45294600  1
  S  S17  1  0.86070900  0.24825300  0.93002200  1
  S  S18  1  0.86070900  0.75174700  0.93002200  1
  S  S19  1  0.96510000  0.00000000  0.67968700  1
  S  S20  1  0.03490000  0.00000000  0.32031300  1
  S  S21  1  0.13929100  0.24825300  0.06997800  1
  S  S22  1  0.13929100  0.75174700  0.06997800  1
  S  S23  1  0.15753800  0.50000000  0.54705400  1
  S  S24  1  0.34246200  0.00000000  0.45294600  1
  S  S25  1  0.36070900  0.74825300  0.93002200  1
  S  S26  1  0.36070900  0.25174700  0.93002200  1
  S  S27  1  0.46510000  0.50000000  0.67968700  1
