# generated using pymatgen
data_LuCuPbSe3
_symmetry_space_group_name_H-M   'P 1'
_cell_length_a   4.03714800
_cell_length_b   13.59646400
_cell_length_c   10.44859900
_cell_angle_alpha   90.00000000
_cell_angle_beta   90.00000000
_cell_angle_gamma   90.00000000
_symmetry_Int_Tables_number   1
_chemical_formula_structural   LuCuPbSe3
_chemical_formula_sum   'Lu4 Cu4 Pb4 Se12'
_cell_volume   573.53339409
_cell_formula_units_Z   4
loop_
 _symmetry_equiv_pos_site_id
 _symmetry_equiv_pos_as_xyz
  1  'x, y, z'
loop_
 _atom_site_type_symbol
 _atom_site_label
 _atom_site_symmetry_multiplicity
 _atom_site_fract_x
 _atom_site_fract_y
 _atom_site_fract_z
 _atom_site_occupancy
  Lu  Lu0  1  0.50000000  0.00137000  0.50553800  1
  Lu  Lu1  1  0.00000000  0.49863000  0.00553800  1
  Lu  Lu2  1  0.00000000  0.50137000  0.50553800  1
  Lu  Lu3  1  0.50000000  0.99863000  0.00553800  1
  Cu  Cu4  1  0.00000000  0.03360800  0.75503800  1
  Cu  Cu5  1  0.50000000  0.46639200  0.25503800  1
  Cu  Cu6  1  0.50000000  0.53360800  0.75503800  1
  Cu  Cu7  1  0.00000000  0.96639200  0.25503800  1
  Pb  Pb8  1  0.50000000  0.24560900  0.76364200  1
  Pb  Pb9  1  0.00000000  0.25439100  0.26364200  1
  Pb  Pb10  1  0.00000000  0.74560900  0.76364200  1
  Pb  Pb11  1  0.50000000  0.75439100  0.26364200  1
  Se  Se12  1  0.50000000  0.36124800  0.44598000  1
  Se  Se13  1  0.50000000  0.36061500  0.06529700  1
  Se  Se14  1  0.50000000  0.07720400  0.25314800  1
  Se  Se15  1  0.00000000  0.42279600  0.75314800  1
  Se  Se16  1  0.00000000  0.13938500  0.56529700  1
  Se  Se17  1  0.00000000  0.13875200  0.94598000  1
  Se  Se18  1  0.00000000  0.86124800  0.44598000  1
  Se  Se19  1  0.00000000  0.86061500  0.06529700  1
  Se  Se20  1  0.00000000  0.57720400  0.25314800  1
  Se  Se21  1  0.50000000  0.92279600  0.75314800  1
  Se  Se22  1  0.50000000  0.63938500  0.56529700  1
  Se  Se23  1  0.50000000  0.63875200  0.94598000  1
