# generated using pymatgen
data_LiFe3O3F4
_symmetry_space_group_name_H-M   'P 1'
_cell_length_a   8.40661089
_cell_length_b   8.40661089
_cell_length_c   6.93195443
_cell_angle_alpha   90.00000000
_cell_angle_beta   90.00000000
_cell_angle_gamma   120.00000000
_symmetry_Int_Tables_number   1
_chemical_formula_structural   LiFe3O3F4
_chemical_formula_sum   'Li3 Fe9 O9 F12'
_cell_volume   424.25622463
_cell_formula_units_Z   3
loop_
 _symmetry_equiv_pos_site_id
 _symmetry_equiv_pos_as_xyz
  1  'x, y, z'
loop_
 _atom_site_type_symbol
 _atom_site_label
 _atom_site_symmetry_multiplicity
 _atom_site_fract_x
 _atom_site_fract_y
 _atom_site_fract_z
 _atom_site_occupancy
  Li  Li0  1  0.00000000  0.00000000  0.98410700  1
  Li  Li1  1  0.66666667  0.33333333  0.31744033  1
  Li  Li2  1  0.33333333  0.66666667  0.65077367  1
  Fe  Fe3  1  0.74672133  0.87336067  0.40771367  1
  Fe  Fe4  1  0.12663933  0.87336067  0.40771367  1
  Fe  Fe5  1  0.12663933  0.25327867  0.40771367  1
  Fe  Fe6  1  0.41338800  0.20669400  0.74104700  1
  Fe  Fe7  1  0.79330600  0.20669400  0.74104700  1
  Fe  Fe8  1  0.79330600  0.58661200  0.74104700  1
  Fe  Fe9  1  0.08005467  0.54002733  0.07438033  1
  Fe  Fe10  1  0.45997267  0.54002733  0.07438033  1
  Fe  Fe11  1  0.45997267  0.91994533  0.07438033  1
  O  O12  1  0.87234833  0.74469667  0.51113767  1
  O  O13  1  0.87234833  0.12765167  0.51113767  1
  O  O14  1  0.25530333  0.12765167  0.51113767  1
  O  O15  1  0.53901500  0.07803000  0.84447100  1
  O  O16  1  0.53901500  0.46098500  0.84447100  1
  O  O17  1  0.92197000  0.46098500  0.84447100  1
  O  O18  1  0.20568167  0.41136333  0.17780433  1
  O  O19  1  0.20568167  0.79431833  0.17780433  1
  O  O20  1  0.58863667  0.79431833  0.17780433  1
  F  F21  1  0.57618267  0.78809133  0.60693133  1
  F  F22  1  0.00000000  0.00000000  0.25147900  1
  F  F23  1  0.21190867  0.78809133  0.60693133  1
  F  F24  1  0.21190867  0.42381733  0.60693133  1
  F  F25  1  0.24284933  0.12142467  0.94026467  1
  F  F26  1  0.66666667  0.33333333  0.58481233  1
  F  F27  1  0.87857533  0.12142467  0.94026467  1
  F  F28  1  0.87857533  0.75715067  0.94026467  1
  F  F29  1  0.90951600  0.45475800  0.27359800  1
  F  F30  1  0.33333333  0.66666667  0.91814567  1
  F  F31  1  0.54524200  0.45475800  0.27359800  1
  F  F32  1  0.54524200  0.09048400  0.27359800  1
