# generated using pymatgen
data_Fe2OF3
_symmetry_space_group_name_H-M   'P 1'
_cell_length_a   6.74204800
_cell_length_b   6.95330800
_cell_length_c   15.64950100
_cell_angle_alpha   90.00000000
_cell_angle_beta   90.00000000
_cell_angle_gamma   90.00000000
_symmetry_Int_Tables_number   1
_chemical_formula_structural   Fe2OF3
_chemical_formula_sum   'Fe20 O10 F30'
_cell_volume   733.64135012
_cell_formula_units_Z   10
loop_
 _symmetry_equiv_pos_site_id
 _symmetry_equiv_pos_as_xyz
  1  'x, y, z'
loop_
 _atom_site_type_symbol
 _atom_site_label
 _atom_site_symmetry_multiplicity
 _atom_site_fract_x
 _atom_site_fract_y
 _atom_site_fract_z
 _atom_site_occupancy
  Fe  Fe0  1  0.96914500  0.00000000  0.00000000  1
  Fe  Fe1  1  0.02350300  0.00000000  0.19967700  1
  Fe  Fe2  1  0.01233100  0.00000000  0.39979600  1
  Fe  Fe3  1  0.01233100  0.00000000  0.60020400  1
  Fe  Fe4  1  0.02350300  0.00000000  0.80032300  1
  Fe  Fe5  1  0.50094100  0.00000000  0.09969000  1
  Fe  Fe6  1  0.47511000  0.00000000  0.50000000  1
  Fe  Fe7  1  0.47552300  0.00000000  0.29931400  1
  Fe  Fe8  1  0.47552300  0.00000000  0.70068600  1
  Fe  Fe9  1  0.50094100  0.00000000  0.90031000  1
  Fe  Fe10  1  0.46914500  0.50000000  0.00000000  1
  Fe  Fe11  1  0.52350300  0.50000000  0.19967700  1
  Fe  Fe12  1  0.51233100  0.50000000  0.39979600  1
  Fe  Fe13  1  0.51233100  0.50000000  0.60020400  1
  Fe  Fe14  1  0.52350300  0.50000000  0.80032300  1
  Fe  Fe15  1  0.00094100  0.50000000  0.09969000  1
  Fe  Fe16  1  0.97511000  0.50000000  0.50000000  1
  Fe  Fe17  1  0.97552300  0.50000000  0.29931400  1
  Fe  Fe18  1  0.97552300  0.50000000  0.70068600  1
  Fe  Fe19  1  0.00094100  0.50000000  0.90031000  1
  O  O20  1  0.32110800  0.00000000  0.19675200  1
  O  O21  1  0.31167200  0.00000000  0.39950200  1
  O  O22  1  0.31167200  0.00000000  0.60049800  1
  O  O23  1  0.32110800  0.00000000  0.80324800  1
  O  O24  1  0.67161900  0.00000000  0.00000000  1
  O  O25  1  0.82110800  0.50000000  0.19675200  1
  O  O26  1  0.81167200  0.50000000  0.39950200  1
  O  O27  1  0.81167200  0.50000000  0.60049800  1
  O  O28  1  0.82110800  0.50000000  0.80324800  1
  O  O29  1  0.17161900  0.50000000  0.00000000  1
  F  F30  1  0.49806600  0.29215100  0.09979300  1
  F  F31  1  0.50237700  0.29021400  0.29942200  1
  F  F32  1  0.49948300  0.29022100  0.50000000  1
  F  F33  1  0.50237700  0.29021400  0.70057800  1
  F  F34  1  0.49806600  0.29215100  0.90020700  1
  F  F35  1  0.28994200  0.00000000  0.00000000  1
  F  F36  1  0.70451800  0.00000000  0.20152600  1
  F  F37  1  0.69712800  0.00000000  0.39990100  1
  F  F38  1  0.69712800  0.00000000  0.60009900  1
  F  F39  1  0.70451800  0.00000000  0.79847400  1
  F  F40  1  0.49806600  0.70784900  0.09979300  1
  F  F41  1  0.49948300  0.70977900  0.50000000  1
  F  F42  1  0.50237700  0.70978600  0.29942200  1
  F  F43  1  0.49806600  0.70784900  0.90020700  1
  F  F44  1  0.50237700  0.70978600  0.70057800  1
  F  F45  1  0.99806600  0.79215100  0.09979300  1
  F  F46  1  0.00237700  0.79021400  0.29942200  1
  F  F47  1  0.99948300  0.79022100  0.50000000  1
  F  F48  1  0.00237700  0.79021400  0.70057800  1
  F  F49  1  0.99806600  0.79215100  0.90020700  1
  F  F50  1  0.78994200  0.50000000  0.00000000  1
  F  F51  1  0.20451800  0.50000000  0.20152600  1
  F  F52  1  0.19712800  0.50000000  0.39990100  1
  F  F53  1  0.19712800  0.50000000  0.60009900  1
  F  F54  1  0.20451800  0.50000000  0.79847400  1
  F  F55  1  0.99806600  0.20784900  0.09979300  1
  F  F56  1  0.99948300  0.20977900  0.50000000  1
  F  F57  1  0.00237700  0.20978600  0.29942200  1
  F  F58  1  0.99806600  0.20784900  0.90020700  1
  F  F59  1  0.00237700  0.20978600  0.70057800  1
