# generated using pymatgen
data_BaNaP3H3(NO2)3
_symmetry_space_group_name_H-M   'P 1'
_cell_length_a   10.92939200
_cell_length_b   10.50262200
_cell_length_c   7.99592748
_cell_angle_alpha   90.00000000
_cell_angle_beta   115.56261921
_cell_angle_gamma   90.00000000
_symmetry_Int_Tables_number   1
_chemical_formula_structural   BaNaP3H3(NO2)3
_chemical_formula_sum   'Ba4 Na4 P12 H12 N12 O24'
_cell_volume   827.98814813
_cell_formula_units_Z   4
loop_
 _symmetry_equiv_pos_site_id
 _symmetry_equiv_pos_as_xyz
  1  'x, y, z'
loop_
 _atom_site_type_symbol
 _atom_site_label
 _atom_site_symmetry_multiplicity
 _atom_site_fract_x
 _atom_site_fract_y
 _atom_site_fract_z
 _atom_site_occupancy
  Ba  Ba0  1  0.06881700  0.50000000  0.30342100  1
  Ba  Ba1  1  0.93118300  0.50000000  0.69657900  1
  Ba  Ba2  1  0.56881700  0.00000000  0.30342100  1
  Ba  Ba3  1  0.43118300  0.00000000  0.69657900  1
  Na  Na4  1  0.00000000  0.18201700  0.50000000  1
  Na  Na5  1  0.00000000  0.81798300  0.50000000  1
  Na  Na6  1  0.50000000  0.68201700  0.50000000  1
  Na  Na7  1  0.50000000  0.31798300  0.50000000  1
  P  P8  1  0.29802800  0.64140500  0.76515200  1
  P  P9  1  0.70197200  0.64140500  0.23484800  1
  P  P10  1  0.70197200  0.35859500  0.23484800  1
  P  P11  1  0.29802800  0.35859500  0.76515200  1
  P  P12  1  0.29977100  0.50000000  0.08650100  1
  P  P13  1  0.70022900  0.50000000  0.91349900  1
  P  P14  1  0.79802800  0.14140500  0.76515200  1
  P  P15  1  0.20197200  0.14140500  0.23484800  1
  P  P16  1  0.20197200  0.85859500  0.23484800  1
  P  P17  1  0.79802800  0.85859500  0.76515200  1
  P  P18  1  0.79977100  0.00000000  0.08650100  1
  P  P19  1  0.20022900  0.00000000  0.91349900  1
  H  H20  1  0.43553100  0.50000000  0.70709400  1
  H  H21  1  0.56446900  0.50000000  0.29290600  1
  H  H22  1  0.92179800  0.18063100  0.08202100  1
  H  H23  1  0.07820200  0.18063100  0.91797900  1
  H  H24  1  0.07820200  0.81936900  0.91797900  1
  H  H25  1  0.92179800  0.81936900  0.08202100  1
  H  H26  1  0.93553100  0.00000000  0.70709400  1
  H  H27  1  0.06446900  0.00000000  0.29290600  1
  H  H28  1  0.42179800  0.68063100  0.08202100  1
  H  H29  1  0.57820200  0.68063100  0.91797900  1
  H  H30  1  0.57820200  0.31936900  0.91797900  1
  H  H31  1  0.42179800  0.31936900  0.08202100  1
  N  N32  1  0.34079850  0.62741250  0.99327600  1
  N  N33  1  0.65920150  0.62741250  0.00672400  1
  N  N34  1  0.65920150  0.37258750  0.00672400  1
  N  N35  1  0.34079850  0.37258750  0.99327600  1
  N  N36  1  0.33715400  0.50000000  0.69415700  1
  N  N37  1  0.66284600  0.50000000  0.30584300  1
  N  N38  1  0.84079850  0.12741250  0.99327600  1
  N  N39  1  0.15920150  0.12741250  0.00672400  1
  N  N40  1  0.15920150  0.87258750  0.00672400  1
  N  N41  1  0.84079850  0.87258750  0.99327600  1
  N  N42  1  0.83715400  0.00000000  0.69415700  1
  N  N43  1  0.16284600  0.00000000  0.30584300  1
  O  O44  1  0.88863800  0.24063300  0.73945600  1
  O  O45  1  0.11136200  0.24063300  0.26054400  1
  O  O46  1  0.11136200  0.75936700  0.26054400  1
  O  O47  1  0.88863800  0.75936700  0.73945600  1
  O  O48  1  0.14430900  0.65051700  0.66129100  1
  O  O49  1  0.85569100  0.65051700  0.33870900  1
  O  O50  1  0.85569100  0.34948300  0.33870900  1
  O  O51  1  0.14430900  0.34948300  0.66129100  1
  O  O52  1  0.14762100  0.50000000  0.02446100  1
  O  O53  1  0.85237900  0.50000000  0.97553900  1
  O  O54  1  0.38817200  0.50000000  0.29477400  1
  O  O55  1  0.61182800  0.50000000  0.70522600  1
  O  O56  1  0.38863800  0.74063300  0.73945600  1
  O  O57  1  0.61136200  0.74063300  0.26054400  1
  O  O58  1  0.61136200  0.25936700  0.26054400  1
  O  O59  1  0.38863800  0.25936700  0.73945600  1
  O  O60  1  0.64430900  0.15051700  0.66129100  1
  O  O61  1  0.35569100  0.15051700  0.33870900  1
  O  O62  1  0.35569100  0.84948300  0.33870900  1
  O  O63  1  0.64430900  0.84948300  0.66129100  1
  O  O64  1  0.64762100  0.00000000  0.02446100  1
  O  O65  1  0.35237900  0.00000000  0.97553900  1
  O  O66  1  0.88817200  0.00000000  0.29477400  1
  O  O67  1  0.11182800  0.00000000  0.70522600  1
