# generated using pymatgen
data_Li3Mn3FeO8
_symmetry_space_group_name_H-M   'P 1'
_cell_length_a   10.23689400
_cell_length_b   5.99602600
_cell_length_c   6.06706088
_cell_angle_alpha   90.00000000
_cell_angle_beta   126.01023901
_cell_angle_gamma   90.00000000
_symmetry_Int_Tables_number   1
_chemical_formula_structural   Li3Mn3FeO8
_chemical_formula_sum   'Li6 Mn6 Fe2 O16'
_cell_volume   301.23908077
_cell_formula_units_Z   2
loop_
 _symmetry_equiv_pos_site_id
 _symmetry_equiv_pos_as_xyz
  1  'x, y, z'
loop_
 _atom_site_type_symbol
 _atom_site_label
 _atom_site_symmetry_multiplicity
 _atom_site_fract_x
 _atom_site_fract_y
 _atom_site_fract_z
 _atom_site_occupancy
  Li  Li0  1  0.25000000  0.25000000  0.50000000  1
  Li  Li1  1  0.00000000  0.00000000  0.00000000  1
  Li  Li2  1  0.25000000  0.75000000  0.50000000  1
  Li  Li3  1  0.75000000  0.75000000  0.50000000  1
  Li  Li4  1  0.50000000  0.50000000  0.00000000  1
  Li  Li5  1  0.75000000  0.25000000  0.50000000  1
  Mn  Mn6  1  0.25000000  0.75000000  0.00000000  1
  Mn  Mn7  1  0.50000000  0.00000000  0.50000000  1
  Mn  Mn8  1  0.75000000  0.75000000  0.00000000  1
  Mn  Mn9  1  0.75000000  0.25000000  0.00000000  1
  Mn  Mn10  1  0.00000000  0.50000000  0.50000000  1
  Mn  Mn11  1  0.25000000  0.25000000  0.00000000  1
  Fe  Fe12  1  0.00000000  0.00000000  0.50000000  1
  Fe  Fe13  1  0.50000000  0.50000000  0.50000000  1
  O  O14  1  0.26488300  0.00000000  0.27998900  1
  O  O15  1  0.50938750  0.75684950  0.73036000  1
  O  O16  1  0.25844200  0.50000000  0.22098700  1
  O  O17  1  0.23511700  0.50000000  0.72001100  1
  O  O18  1  0.00938750  0.74315050  0.73036000  1
  O  O19  1  0.99061250  0.74315050  0.26964000  1
  O  O20  1  0.24155800  0.00000000  0.77901300  1
  O  O21  1  0.49061250  0.75684950  0.26964000  1
  O  O22  1  0.76488300  0.50000000  0.27998900  1
  O  O23  1  0.00938750  0.25684950  0.73036000  1
  O  O24  1  0.75844200  0.00000000  0.22098700  1
  O  O25  1  0.73511700  0.00000000  0.72001100  1
  O  O26  1  0.50938750  0.24315050  0.73036000  1
  O  O27  1  0.49061250  0.24315050  0.26964000  1
  O  O28  1  0.74155800  0.50000000  0.77901300  1
  O  O29  1  0.99061250  0.25684950  0.26964000  1
