# generated using pymatgen
data_Rb2CoSe2
_symmetry_space_group_name_H-M   'P 1'
_cell_length_a   6.54897000
_cell_length_b   7.22802200
_cell_length_c   13.77955400
_cell_angle_alpha   90.00000000
_cell_angle_beta   90.00000000
_cell_angle_gamma   90.00000000
_symmetry_Int_Tables_number   1
_chemical_formula_structural   Rb2CoSe2
_chemical_formula_sum   'Rb8 Co4 Se8'
_cell_volume   652.27033559
_cell_formula_units_Z   4
loop_
 _symmetry_equiv_pos_site_id
 _symmetry_equiv_pos_as_xyz
  1  'x, y, z'
loop_
 _atom_site_type_symbol
 _atom_site_label
 _atom_site_symmetry_multiplicity
 _atom_site_fract_x
 _atom_site_fract_y
 _atom_site_fract_z
 _atom_site_occupancy
  Rb  Rb0  1  0.00000000  0.82749000  0.35474900  1
  Rb  Rb1  1  0.50000000  0.67251000  0.14525100  1
  Rb  Rb2  1  0.00000000  0.32749000  0.14525100  1
  Rb  Rb3  1  0.50000000  0.17251000  0.35474900  1
  Rb  Rb4  1  0.50000000  0.32749000  0.85474900  1
  Rb  Rb5  1  0.00000000  0.17251000  0.64525100  1
  Rb  Rb6  1  0.50000000  0.82749000  0.64525100  1
  Rb  Rb7  1  0.00000000  0.67251000  0.85474900  1
  Co  Co8  1  0.75000000  0.00000000  0.00000000  1
  Co  Co9  1  0.25000000  0.00000000  0.00000000  1
  Co  Co10  1  0.25000000  0.50000000  0.50000000  1
  Co  Co11  1  0.75000000  0.50000000  0.50000000  1
  Se  Se12  1  0.00000000  0.32669800  0.40352500  1
  Se  Se13  1  0.00000000  0.82669800  0.09647500  1
  Se  Se14  1  0.50000000  0.67330200  0.40352500  1
  Se  Se15  1  0.50000000  0.17330200  0.09647500  1
  Se  Se16  1  0.50000000  0.82669800  0.90352500  1
  Se  Se17  1  0.50000000  0.32669800  0.59647500  1
  Se  Se18  1  0.00000000  0.17330200  0.90352500  1
  Se  Se19  1  0.00000000  0.67330200  0.59647500  1
