# generated using pymatgen
data_Li7Co(O2F)2
_symmetry_space_group_name_H-M   'P 1'
_cell_length_a   5.34668410
_cell_length_b   5.71678982
_cell_length_c   10.24509327
_cell_angle_alpha   105.47730576
_cell_angle_beta   86.06915442
_cell_angle_gamma   114.78460218
_symmetry_Int_Tables_number   1
_chemical_formula_structural   Li7Co(O2F)2
_chemical_formula_sum   'Li14 Co2 O8 F4'
_cell_volume   273.65999771
_cell_formula_units_Z   2
loop_
 _symmetry_equiv_pos_site_id
 _symmetry_equiv_pos_as_xyz
  1  'x, y, z'
loop_
 _atom_site_type_symbol
 _atom_site_label
 _atom_site_symmetry_multiplicity
 _atom_site_fract_x
 _atom_site_fract_y
 _atom_site_fract_z
 _atom_site_occupancy
  Li  Li0  1  0.05337520  0.96684501  0.76825551  1
  Li  Li1  1  0.47053044  0.36733155  0.25821540  1
  Li  Li2  1  0.53562055  0.05649638  0.61193688  1
  Li  Li3  1  0.96761214  0.41816264  0.87809041  1
  Li  Li4  1  0.04284753  0.77680491  0.55678377  1
  Li  Li5  1  0.51665056  0.28818740  0.04260079  1
  Li  Li6  1  0.94862444  0.64259553  0.32205643  1
  Li  Li7  1  0.48629063  0.76406255  0.93713536  1
  Li  Li8  1  0.97212941  0.21884128  0.46912427  1
  Li  Li9  1  0.98295084  0.50345642  0.10323293  1
  Li  Li10  1  0.49023230  0.96586816  0.38623958  1
  Li  Li11  1  0.48616531  0.56314793  0.72197788  1
  Li  Li12  1  0.99084936  0.09368957  0.25433400  1
  Li  Li13  1  0.52071285  0.84899500  0.17213689  1
  Co  Co14  1  0.00523602  0.94992510  0.05162612  1
  Co  Co15  1  0.50554979  0.50375140  0.49221722  1
  O  O16  1  0.25610351  0.18187017  0.59584131  1
  O  O17  1  0.28249075  0.02463145  0.20476800  1
  O  O18  1  0.16421467  0.81970929  0.96363260  1
  O  O19  1  0.66468191  0.31572186  0.43464593  1
  O  O20  1  0.69025053  0.62387717  0.11809084  1
  O  O21  1  0.34547417  0.69408334  0.54058158  1
  O  O22  1  0.82742749  0.17098870  0.05580323  1
  O  O23  1  0.77444327  0.83269811  0.39310916  1
  F  F24  1  0.86382868  0.60827317  0.72128225  1
  F  F25  1  0.32065890  0.41560890  0.88825437  1
  F  F26  1  0.14651953  0.43646390  0.27720765  1
  F  F27  1  0.68853020  0.94791411  0.78082165  1
