# generated using pymatgen
data_K2Sn2S5
_symmetry_space_group_name_H-M   'P 1'
_cell_length_a   11.26506400
_cell_length_b   8.00547800
_cell_length_c   11.71380242
_cell_angle_alpha   90.00000000
_cell_angle_beta   108.11357393
_cell_angle_gamma   90.00000000
_symmetry_Int_Tables_number   1
_chemical_formula_structural   K2Sn2S5
_chemical_formula_sum   'K8 Sn8 S20'
_cell_volume   1004.02492078
_cell_formula_units_Z   4
loop_
 _symmetry_equiv_pos_site_id
 _symmetry_equiv_pos_as_xyz
  1  'x, y, z'
loop_
 _atom_site_type_symbol
 _atom_site_label
 _atom_site_symmetry_multiplicity
 _atom_site_fract_x
 _atom_site_fract_y
 _atom_site_fract_z
 _atom_site_occupancy
  K  K0  1  0.78133950  0.33252550  0.18369900  1
  K  K1  1  0.21866050  0.33252550  0.31630100  1
  K  K2  1  0.21866050  0.66747450  0.81630100  1
  K  K3  1  0.78133950  0.66747450  0.68369900  1
  K  K4  1  0.28133950  0.83252550  0.18369900  1
  K  K5  1  0.71866050  0.83252550  0.31630100  1
  K  K6  1  0.71866050  0.16747450  0.81630100  1
  K  K7  1  0.28133950  0.16747450  0.68369900  1
  Sn  Sn8  1  0.90560350  0.84513450  0.05722500  1
  Sn  Sn9  1  0.09439650  0.84513450  0.44277500  1
  Sn  Sn10  1  0.09439650  0.15486550  0.94277500  1
  Sn  Sn11  1  0.90560350  0.15486550  0.55722500  1
  Sn  Sn12  1  0.40560350  0.34513450  0.05722500  1
  Sn  Sn13  1  0.59439650  0.34513450  0.44277500  1
  Sn  Sn14  1  0.59439650  0.65486550  0.94277500  1
  Sn  Sn15  1  0.40560350  0.65486550  0.55722500  1
  S  S16  1  0.19616800  0.44635900  0.03660700  1
  S  S17  1  0.80383200  0.44635900  0.46339300  1
  S  S18  1  0.80383200  0.55364100  0.96339300  1
  S  S19  1  0.19616800  0.55364100  0.53660700  1
  S  S20  1  0.00000000  0.68745300  0.25000000  1
  S  S21  1  0.00000000  0.31254700  0.75000000  1
  S  S22  1  0.98468600  0.86740300  0.88358700  1
  S  S23  1  0.01531400  0.86740300  0.61641300  1
  S  S24  1  0.98468600  0.13259700  0.38358700  1
  S  S25  1  0.01531400  0.13259700  0.11641300  1
  S  S26  1  0.69616800  0.94635900  0.03660700  1
  S  S27  1  0.30383200  0.94635900  0.46339300  1
  S  S28  1  0.30383200  0.05364100  0.96339300  1
  S  S29  1  0.69616800  0.05364100  0.53660700  1
  S  S30  1  0.50000000  0.18745300  0.25000000  1
  S  S31  1  0.50000000  0.81254700  0.75000000  1
  S  S32  1  0.48468600  0.36740300  0.88358700  1
  S  S33  1  0.51531400  0.36740300  0.61641300  1
  S  S34  1  0.48468600  0.63259700  0.38358700  1
  S  S35  1  0.51531400  0.63259700  0.11641300  1
