# generated using pymatgen
data_La3H15I10O37
_symmetry_space_group_name_H-M   'P 1'
_cell_length_a   12.42277400
_cell_length_b   21.80840000
_cell_length_c   13.29989100
_cell_angle_alpha   90.00000000
_cell_angle_beta   90.00000000
_cell_angle_gamma   90.00000000
_symmetry_Int_Tables_number   1
_chemical_formula_structural   La3H15I10O37
_chemical_formula_sum   'La12 H60 I40 O148'
_cell_volume   3603.21743550
_cell_formula_units_Z   4
loop_
 _symmetry_equiv_pos_site_id
 _symmetry_equiv_pos_as_xyz
  1  'x, y, z'
loop_
 _atom_site_type_symbol
 _atom_site_label
 _atom_site_symmetry_multiplicity
 _atom_site_fract_x
 _atom_site_fract_y
 _atom_site_fract_z
 _atom_site_occupancy
  La  La0  1  0.00939400  0.00000000  0.00000000  1
  La  La1  1  0.72367150  0.23800050  0.16296300  1
  La  La2  1  0.22367150  0.23800050  0.33703700  1
  La  La3  1  0.50939400  0.00000000  0.50000000  1
  La  La4  1  0.72367150  0.26199950  0.66296300  1
  La  La5  1  0.22367150  0.26199950  0.83703700  1
  La  La6  1  0.50939400  0.50000000  0.00000000  1
  La  La7  1  0.22367150  0.73800050  0.16296300  1
  La  La8  1  0.72367150  0.73800050  0.33703700  1
  La  La9  1  0.00939400  0.50000000  0.50000000  1
  La  La10  1  0.22367150  0.76199950  0.66296300  1
  La  La11  1  0.72367150  0.76199950  0.83703700  1
  H  H12  1  0.28786600  0.00000000  0.00000000  1
  H  H13  1  0.39726050  0.03166550  0.06874100  1
  H  H14  1  0.35314950  0.38150950  0.04728900  1
  H  H15  1  0.14892350  0.48656350  0.10787600  1
  H  H16  1  0.64045100  0.09247900  0.12025400  1
  H  H17  1  0.62671250  0.13207950  0.02360800  1
  H  H18  1  0.34828800  0.42520500  0.14336000  1
  H  H19  1  0.56193000  0.01287800  0.17832500  1
  H  H20  1  0.06193000  0.01287800  0.32167500  1
  H  H21  1  0.84828800  0.42520500  0.35664000  1
  H  H22  1  0.12671250  0.13207950  0.47639200  1
  H  H23  1  0.14045100  0.09247900  0.37974600  1
  H  H24  1  0.64892350  0.48656350  0.39212400  1
  H  H25  1  0.85314950  0.38150950  0.45271100  1
  H  H26  1  0.89726050  0.03166550  0.43125900  1
  H  H27  1  0.78786600  0.00000000  0.50000000  1
  H  H28  1  0.39726050  0.46833450  0.56874100  1
  H  H29  1  0.35314950  0.11849050  0.54728900  1
  H  H30  1  0.14892350  0.01343650  0.60787600  1
  H  H31  1  0.64045100  0.40752100  0.62025400  1
  H  H32  1  0.62671250  0.36792050  0.52360800  1
  H  H33  1  0.34828800  0.07479500  0.64336000  1
  H  H34  1  0.56193000  0.48712200  0.67832500  1
  H  H35  1  0.06193000  0.48712200  0.82167500  1
  H  H36  1  0.84828800  0.07479500  0.85664000  1
  H  H37  1  0.12671250  0.36792050  0.97639200  1
  H  H38  1  0.14045100  0.40752100  0.87974600  1
  H  H39  1  0.64892350  0.01343650  0.89212400  1
  H  H40  1  0.85314950  0.11849050  0.95271100  1
  H  H41  1  0.89726050  0.46833450  0.93125900  1
  H  H42  1  0.78786600  0.50000000  0.00000000  1
  H  H43  1  0.89726050  0.53166550  0.06874100  1
  H  H44  1  0.85314950  0.88150950  0.04728900  1
  H  H45  1  0.64892350  0.98656350  0.10787600  1
  H  H46  1  0.14045100  0.59247900  0.12025400  1
  H  H47  1  0.12671250  0.63207950  0.02360800  1
  H  H48  1  0.84828800  0.92520500  0.14336000  1
  H  H49  1  0.06193000  0.51287800  0.17832500  1
  H  H50  1  0.56193000  0.51287800  0.32167500  1
  H  H51  1  0.34828800  0.92520500  0.35664000  1
  H  H52  1  0.62671250  0.63207950  0.47639200  1
  H  H53  1  0.64045100  0.59247900  0.37974600  1
  H  H54  1  0.14892350  0.98656350  0.39212400  1
  H  H55  1  0.35314950  0.88150950  0.45271100  1
  H  H56  1  0.39726050  0.53166550  0.43125900  1
  H  H57  1  0.28786600  0.50000000  0.50000000  1
  H  H58  1  0.89726050  0.96833450  0.56874100  1
  H  H59  1  0.85314950  0.61849050  0.54728900  1
  H  H60  1  0.64892350  0.51343650  0.60787600  1
  H  H61  1  0.14045100  0.90752100  0.62025400  1
  H  H62  1  0.12671250  0.86792050  0.52360800  1
  H  H63  1  0.84828800  0.57479500  0.64336000  1
  H  H64  1  0.06193000  0.98712200  0.67832500  1
  H  H65  1  0.56193000  0.98712200  0.82167500  1
  H  H66  1  0.34828800  0.57479500  0.85664000  1
  H  H67  1  0.62671250  0.86792050  0.97639200  1
  H  H68  1  0.64045100  0.90752100  0.87974600  1
  H  H69  1  0.14892350  0.51343650  0.89212400  1
  H  H70  1  0.35314950  0.61849050  0.95271100  1
  H  H71  1  0.39726050  0.96833450  0.93125900  1
  I  I72  1  0.39228450  0.23809350  0.07949800  1
  I  I73  1  0.09409400  0.17700500  0.08702600  1
  I  I74  1  0.75083700  0.41070900  0.12092700  1
  I  I75  1  0.00405900  0.34415600  0.19263200  1
  I  I76  1  0.84188300  0.07547300  0.24797700  1
  I  I77  1  0.34188300  0.07547300  0.25202300  1
  I  I78  1  0.50405900  0.34415600  0.30736800  1
  I  I79  1  0.25083700  0.41070900  0.37907300  1
  I  I80  1  0.59409400  0.17700500  0.41297400  1
  I  I81  1  0.89228450  0.23809350  0.42050200  1
  I  I82  1  0.39228450  0.26190650  0.57949800  1
  I  I83  1  0.09409400  0.32299500  0.58702600  1
  I  I84  1  0.75083700  0.08929100  0.62092700  1
  I  I85  1  0.00405900  0.15584400  0.69263200  1
  I  I86  1  0.84188300  0.42452700  0.74797700  1
  I  I87  1  0.34188300  0.42452700  0.75202300  1
  I  I88  1  0.50405900  0.15584400  0.80736800  1
  I  I89  1  0.25083700  0.08929100  0.87907300  1
  I  I90  1  0.59409400  0.32299500  0.91297400  1
  I  I91  1  0.89228450  0.26190650  0.92050200  1
  I  I92  1  0.89228450  0.73809350  0.07949800  1
  I  I93  1  0.59409400  0.67700500  0.08702600  1
  I  I94  1  0.25083700  0.91070900  0.12092700  1
  I  I95  1  0.50405900  0.84415600  0.19263200  1
  I  I96  1  0.34188300  0.57547300  0.24797700  1
  I  I97  1  0.84188300  0.57547300  0.25202300  1
  I  I98  1  0.00405900  0.84415600  0.30736800  1
  I  I99  1  0.75083700  0.91070900  0.37907300  1
  I  I100  1  0.09409400  0.67700500  0.41297400  1
  I  I101  1  0.39228450  0.73809350  0.42050200  1
  I  I102  1  0.89228450  0.76190650  0.57949800  1
  I  I103  1  0.59409400  0.82299500  0.58702600  1
  I  I104  1  0.25083700  0.58929100  0.62092700  1
  I  I105  1  0.50405900  0.65584400  0.69263200  1
  I  I106  1  0.34188300  0.92452700  0.74797700  1
  I  I107  1  0.84188300  0.92452700  0.75202300  1
  I  I108  1  0.00405900  0.65584400  0.80736800  1
  I  I109  1  0.75083700  0.58929100  0.87907300  1
  I  I110  1  0.09409400  0.82299500  0.91297400  1
  I  I111  1  0.39228450  0.76190650  0.92050200  1
  O  O112  1  0.36665700  0.00000000  0.00000000  1
  O  O113  1  0.85656300  0.20226000  0.01233600  1
  O  O114  1  0.21210450  0.20607750  0.01645200  1
  O  O115  1  0.09761200  0.10030800  0.02919100  1
  O  O116  1  0.65733000  0.13419900  0.09164400  1
  O  O117  1  0.36763400  0.42363800  0.07117900  1
  O  O118  1  0.53562800  0.26001100  0.09041300  1
  O  O119  1  0.88923350  0.31770050  0.11212100  1
  O  O120  1  0.66417300  0.47958100  0.11899500  1
  O  O121  1  0.06691350  0.39466950  0.10236000  1
  O  O122  1  0.42355900  0.06733200  0.13514400  1
  O  O123  1  0.93073200  0.03834300  0.15855200  1
  O  O124  1  0.63545850  0.02003950  0.15526200  1
  O  O125  1  0.66985050  0.35343050  0.18800400  1
  O  O126  1  0.08671550  0.27354750  0.18324000  1
  O  O127  1  0.16777650  0.15844150  0.20273300  1
  O  O128  1  0.87888550  0.15478950  0.22146600  1
  O  O129  1  0.84156850  0.43635350  0.22156400  1
  O  O130  1  0.34069050  0.27560450  0.19332200  1
  O  O131  1  0.84069050  0.27560450  0.30667800  1
  O  O132  1  0.34156850  0.43635350  0.27843600  1
  O  O133  1  0.37888550  0.15478950  0.27853400  1
  O  O134  1  0.66777650  0.15844150  0.29726700  1
  O  O135  1  0.58671550  0.27354750  0.31676000  1
  O  O136  1  0.16985050  0.35343050  0.31199600  1
  O  O137  1  0.13545850  0.02003950  0.34473800  1
  O  O138  1  0.43073200  0.03834300  0.34144800  1
  O  O139  1  0.92355900  0.06733200  0.36485600  1
  O  O140  1  0.56691350  0.39466950  0.39764000  1
  O  O141  1  0.16417300  0.47958100  0.38100500  1
  O  O142  1  0.38923350  0.31770050  0.38787900  1
  O  O143  1  0.03562800  0.26001100  0.40958700  1
  O  O144  1  0.86763400  0.42363800  0.42882100  1
  O  O145  1  0.15733000  0.13419900  0.40835600  1
  O  O146  1  0.59761200  0.10030800  0.47080900  1
  O  O147  1  0.71210450  0.20607750  0.48354800  1
  O  O148  1  0.35656300  0.20226000  0.48766400  1
  O  O149  1  0.86665700  0.00000000  0.50000000  1
  O  O150  1  0.85656300  0.29774000  0.51233600  1
  O  O151  1  0.21210450  0.29392250  0.51645200  1
  O  O152  1  0.09761200  0.39969200  0.52919100  1
  O  O153  1  0.65733000  0.36580100  0.59164400  1
  O  O154  1  0.36763400  0.07636200  0.57117900  1
  O  O155  1  0.53562800  0.23998900  0.59041300  1
  O  O156  1  0.88923350  0.18229950  0.61212100  1
  O  O157  1  0.66417300  0.02041900  0.61899500  1
  O  O158  1  0.06691350  0.10533050  0.60236000  1
  O  O159  1  0.42355900  0.43266800  0.63514400  1
  O  O160  1  0.93073200  0.46165700  0.65855200  1
  O  O161  1  0.63545850  0.47996050  0.65526200  1
  O  O162  1  0.66985050  0.14656950  0.68800400  1
  O  O163  1  0.08671550  0.22645250  0.68324000  1
  O  O164  1  0.16777650  0.34155850  0.70273300  1
  O  O165  1  0.87888550  0.34521050  0.72146600  1
  O  O166  1  0.84156850  0.06364650  0.72156400  1
  O  O167  1  0.34069050  0.22439550  0.69332200  1
  O  O168  1  0.84069050  0.22439550  0.80667800  1
  O  O169  1  0.34156850  0.06364650  0.77843600  1
  O  O170  1  0.37888550  0.34521050  0.77853400  1
  O  O171  1  0.66777650  0.34155850  0.79726700  1
  O  O172  1  0.58671550  0.22645250  0.81676000  1
  O  O173  1  0.16985050  0.14656950  0.81199600  1
  O  O174  1  0.13545850  0.47996050  0.84473800  1
  O  O175  1  0.43073200  0.46165700  0.84144800  1
  O  O176  1  0.92355900  0.43266800  0.86485600  1
  O  O177  1  0.56691350  0.10533050  0.89764000  1
  O  O178  1  0.16417300  0.02041900  0.88100500  1
  O  O179  1  0.38923350  0.18229950  0.88787900  1
  O  O180  1  0.03562800  0.23998900  0.90958700  1
  O  O181  1  0.86763400  0.07636200  0.92882100  1
  O  O182  1  0.15733000  0.36580100  0.90835600  1
  O  O183  1  0.59761200  0.39969200  0.97080900  1
  O  O184  1  0.71210450  0.29392250  0.98354800  1
  O  O185  1  0.35656300  0.29774000  0.98766400  1
  O  O186  1  0.86665700  0.50000000  0.00000000  1
  O  O187  1  0.35656300  0.70226000  0.01233600  1
  O  O188  1  0.71210450  0.70607750  0.01645200  1
  O  O189  1  0.59761200  0.60030800  0.02919100  1
  O  O190  1  0.15733000  0.63419900  0.09164400  1
  O  O191  1  0.86763400  0.92363800  0.07117900  1
  O  O192  1  0.03562800  0.76001100  0.09041300  1
  O  O193  1  0.38923350  0.81770050  0.11212100  1
  O  O194  1  0.16417300  0.97958100  0.11899500  1
  O  O195  1  0.56691350  0.89466950  0.10236000  1
  O  O196  1  0.92355900  0.56733200  0.13514400  1
  O  O197  1  0.43073200  0.53834300  0.15855200  1
  O  O198  1  0.13545850  0.52003950  0.15526200  1
  O  O199  1  0.16985050  0.85343050  0.18800400  1
  O  O200  1  0.58671550  0.77354750  0.18324000  1
  O  O201  1  0.66777650  0.65844150  0.20273300  1
  O  O202  1  0.37888550  0.65478950  0.22146600  1
  O  O203  1  0.34156850  0.93635350  0.22156400  1
  O  O204  1  0.84069050  0.77560450  0.19332200  1
  O  O205  1  0.34069050  0.77560450  0.30667800  1
  O  O206  1  0.84156850  0.93635350  0.27843600  1
  O  O207  1  0.87888550  0.65478950  0.27853400  1
  O  O208  1  0.16777650  0.65844150  0.29726700  1
  O  O209  1  0.08671550  0.77354750  0.31676000  1
  O  O210  1  0.66985050  0.85343050  0.31199600  1
  O  O211  1  0.63545850  0.52003950  0.34473800  1
  O  O212  1  0.93073200  0.53834300  0.34144800  1
  O  O213  1  0.42355900  0.56733200  0.36485600  1
  O  O214  1  0.06691350  0.89466950  0.39764000  1
  O  O215  1  0.66417300  0.97958100  0.38100500  1
  O  O216  1  0.88923350  0.81770050  0.38787900  1
  O  O217  1  0.53562800  0.76001100  0.40958700  1
  O  O218  1  0.36763400  0.92363800  0.42882100  1
  O  O219  1  0.65733000  0.63419900  0.40835600  1
  O  O220  1  0.09761200  0.60030800  0.47080900  1
  O  O221  1  0.21210450  0.70607750  0.48354800  1
  O  O222  1  0.85656300  0.70226000  0.48766400  1
  O  O223  1  0.36665700  0.50000000  0.50000000  1
  O  O224  1  0.35656300  0.79774000  0.51233600  1
  O  O225  1  0.71210450  0.79392250  0.51645200  1
  O  O226  1  0.59761200  0.89969200  0.52919100  1
  O  O227  1  0.15733000  0.86580100  0.59164400  1
  O  O228  1  0.86763400  0.57636200  0.57117900  1
  O  O229  1  0.03562800  0.73998900  0.59041300  1
  O  O230  1  0.38923350  0.68229950  0.61212100  1
  O  O231  1  0.16417300  0.52041900  0.61899500  1
  O  O232  1  0.56691350  0.60533050  0.60236000  1
  O  O233  1  0.92355900  0.93266800  0.63514400  1
  O  O234  1  0.43073200  0.96165700  0.65855200  1
  O  O235  1  0.13545850  0.97996050  0.65526200  1
  O  O236  1  0.16985050  0.64656950  0.68800400  1
  O  O237  1  0.58671550  0.72645250  0.68324000  1
  O  O238  1  0.66777650  0.84155850  0.70273300  1
  O  O239  1  0.37888550  0.84521050  0.72146600  1
  O  O240  1  0.34156850  0.56364650  0.72156400  1
  O  O241  1  0.84069050  0.72439550  0.69332200  1
  O  O242  1  0.34069050  0.72439550  0.80667800  1
  O  O243  1  0.84156850  0.56364650  0.77843600  1
  O  O244  1  0.87888550  0.84521050  0.77853400  1
  O  O245  1  0.16777650  0.84155850  0.79726700  1
  O  O246  1  0.08671550  0.72645250  0.81676000  1
  O  O247  1  0.66985050  0.64656950  0.81199600  1
  O  O248  1  0.63545850  0.97996050  0.84473800  1
  O  O249  1  0.93073200  0.96165700  0.84144800  1
  O  O250  1  0.42355900  0.93266800  0.86485600  1
  O  O251  1  0.06691350  0.60533050  0.89764000  1
  O  O252  1  0.66417300  0.52041900  0.88100500  1
  O  O253  1  0.88923350  0.68229950  0.88787900  1
  O  O254  1  0.53562800  0.73998900  0.90958700  1
  O  O255  1  0.36763400  0.57636200  0.92882100  1
  O  O256  1  0.65733000  0.86580100  0.90835600  1
  O  O257  1  0.09761200  0.89969200  0.97080900  1
  O  O258  1  0.21210450  0.79392250  0.98354800  1
  O  O259  1  0.85656300  0.79774000  0.98766400  1
