# generated using pymatgen
data_V3(O2F)2
_symmetry_space_group_name_H-M   'P 1'
_cell_length_a   6.56477200
_cell_length_b   19.87684000
_cell_length_c   3.06537600
_cell_angle_alpha   90.00000000
_cell_angle_beta   90.00000000
_cell_angle_gamma   90.00000000
_symmetry_Int_Tables_number   1
_chemical_formula_structural   V3(O2F)2
_chemical_formula_sum   'V12 O16 F8'
_cell_volume   399.99148110
_cell_formula_units_Z   4
loop_
 _symmetry_equiv_pos_site_id
 _symmetry_equiv_pos_as_xyz
  1  'x, y, z'
loop_
 _atom_site_type_symbol
 _atom_site_label
 _atom_site_symmetry_multiplicity
 _atom_site_fract_x
 _atom_site_fract_y
 _atom_site_fract_z
 _atom_site_occupancy
  V  V0  1  0.50000000  0.49333000  0.00000000  1
  V  V1  1  0.50000000  0.33408200  0.50000000  1
  V  V2  1  0.00000000  0.49296000  0.50000000  1
  V  V3  1  0.00000000  0.33293400  0.00000000  1
  V  V4  1  0.50000000  0.17365400  0.00000000  1
  V  V5  1  0.00000000  0.17227500  0.50000000  1
  V  V6  1  0.00000000  0.99333000  0.00000000  1
  V  V7  1  0.00000000  0.83408200  0.50000000  1
  V  V8  1  0.50000000  0.99296000  0.50000000  1
  V  V9  1  0.50000000  0.83293400  0.00000000  1
  V  V10  1  0.00000000  0.67365400  0.00000000  1
  V  V11  1  0.50000000  0.67227500  0.50000000  1
  O  O12  1  0.50000000  0.43026200  0.50000000  1
  O  O13  1  0.80566200  0.49958400  0.00000000  1
  O  O14  1  0.19433800  0.49958400  0.00000000  1
  O  O15  1  0.21263450  0.16738950  0.00000000  1
  O  O16  1  0.00000000  0.39857300  0.50000000  1
  O  O17  1  0.50000000  0.23468700  0.50000000  1
  O  O18  1  0.00000000  0.27010500  0.50000000  1
  O  O19  1  0.78736550  0.16738950  0.00000000  1
  O  O20  1  0.00000000  0.93026200  0.50000000  1
  O  O21  1  0.30566200  0.99958400  0.00000000  1
  O  O22  1  0.69433800  0.99958400  0.00000000  1
  O  O23  1  0.71263450  0.66738950  0.00000000  1
  O  O24  1  0.50000000  0.89857300  0.50000000  1
  O  O25  1  0.00000000  0.73468700  0.50000000  1
  O  O26  1  0.50000000  0.77010500  0.50000000  1
  O  O27  1  0.28736550  0.66738950  0.00000000  1
  F  F28  1  0.69496650  0.33302050  0.00000000  1
  F  F29  1  0.50000000  0.10143700  0.50000000  1
  F  F30  1  0.30503350  0.33302050  0.00000000  1
  F  F31  1  0.00000000  0.06600900  0.50000000  1
  F  F32  1  0.19496650  0.83302050  0.00000000  1
  F  F33  1  0.00000000  0.60143700  0.50000000  1
  F  F34  1  0.80503350  0.83302050  0.00000000  1
  F  F35  1  0.50000000  0.56600900  0.50000000  1
