# generated using pymatgen
data_CePO4
_symmetry_space_group_name_H-M   'P 1'
_cell_length_a   7.19048153
_cell_length_b   7.19048153
_cell_length_c   6.48746000
_cell_angle_alpha   90.00000000
_cell_angle_beta   90.00000000
_cell_angle_gamma   120.00000000
_symmetry_Int_Tables_number   1
_chemical_formula_structural   CePO4
_chemical_formula_sum   'Ce3 P3 O12'
_cell_volume   290.48337068
_cell_formula_units_Z   3
loop_
 _symmetry_equiv_pos_site_id
 _symmetry_equiv_pos_as_xyz
  1  'x, y, z'
loop_
 _atom_site_type_symbol
 _atom_site_label
 _atom_site_symmetry_multiplicity
 _atom_site_fract_x
 _atom_site_fract_y
 _atom_site_fract_z
 _atom_site_occupancy
  Ce  Ce0  1  0.50000000  0.50000000  0.33333333  1
  Ce  Ce1  1  0.50000000  0.00000000  0.00000000  1
  Ce  Ce2  1  0.00000000  0.50000000  0.66666667  1
  P  P3  1  0.50000000  0.50000000  0.83333333  1
  P  P4  1  0.50000000  0.00000000  0.50000000  1
  P  P5  1  0.00000000  0.50000000  0.16666667  1
  O  O6  1  0.30902800  0.86283000  0.64666767  1
  O  O7  1  0.13717000  0.44619800  0.31333433  1
  O  O8  1  0.55380200  0.69097200  0.98000100  1
  O  O9  1  0.44619800  0.30902800  0.98000100  1
  O  O10  1  0.86283000  0.30902800  0.01999900  1
  O  O11  1  0.69097200  0.13717000  0.64666767  1
  O  O12  1  0.13717000  0.69097200  0.01999900  1
  O  O13  1  0.44619800  0.13717000  0.35333233  1
  O  O14  1  0.69097200  0.55380200  0.68666567  1
  O  O15  1  0.30902800  0.44619800  0.68666567  1
  O  O16  1  0.55380200  0.86283000  0.35333233  1
  O  O17  1  0.86283000  0.55380200  0.31333433  1
