# generated using pymatgen
data_Ni6OF11
_symmetry_space_group_name_H-M   'P 1'
_cell_length_a   9.07765000
_cell_length_b   6.68157800
_cell_length_c   7.30872937
_cell_angle_alpha   90.00000000
_cell_angle_beta   111.61593858
_cell_angle_gamma   90.00000000
_symmetry_Int_Tables_number   1
_chemical_formula_structural   Ni6OF11
_chemical_formula_sum   'Ni12 O2 F22'
_cell_volume   412.12130288
_cell_formula_units_Z   2
loop_
 _symmetry_equiv_pos_site_id
 _symmetry_equiv_pos_as_xyz
  1  'x, y, z'
loop_
 _atom_site_type_symbol
 _atom_site_label
 _atom_site_symmetry_multiplicity
 _atom_site_fract_x
 _atom_site_fract_y
 _atom_site_fract_z
 _atom_site_occupancy
  Ni  Ni0  1  0.16673900  0.50000000  0.16656000  1
  Ni  Ni1  1  0.83481800  0.50000000  0.33950900  1
  Ni  Ni2  1  0.16009300  0.50000000  0.66813100  1
  Ni  Ni3  1  0.49902500  0.50000000  0.49989300  1
  Ni  Ni4  1  0.83690200  0.50000000  0.82845700  1
  Ni  Ni5  1  0.50173600  0.50000000  0.99939700  1
  Ni  Ni6  1  0.66673900  0.00000000  0.16656000  1
  Ni  Ni7  1  0.33481800  0.00000000  0.33950900  1
  Ni  Ni8  1  0.66009300  0.00000000  0.66813100  1
  Ni  Ni9  1  0.99902500  0.00000000  0.49989300  1
  Ni  Ni10  1  0.33690200  0.00000000  0.82845700  1
  Ni  Ni11  1  0.00173600  0.00000000  0.99939700  1
  O  O12  1  0.93380200  0.50000000  0.62963700  1
  O  O13  1  0.43380200  0.00000000  0.62963700  1
  F  F14  1  0.83398750  0.19616750  0.33298500  1
  F  F15  1  0.16546350  0.19580750  0.66697700  1
  F  F16  1  0.39432600  0.50000000  0.70086900  1
  F  F17  1  0.73611200  0.50000000  0.03657000  1
  F  F18  1  0.06642000  0.50000000  0.36865600  1
  F  F19  1  0.60116500  0.50000000  0.29742600  1
  F  F20  1  0.26862700  0.50000000  0.96500400  1
  F  F21  1  0.00066650  0.30289650  0.99998300  1
  F  F22  1  0.83398750  0.80383250  0.33298500  1
  F  F23  1  0.16546350  0.80419250  0.66697700  1
  F  F24  1  0.00066650  0.69710350  0.99998300  1
  F  F25  1  0.33398750  0.69616750  0.33298500  1
  F  F26  1  0.66546350  0.69580750  0.66697700  1
  F  F27  1  0.89432600  0.00000000  0.70086900  1
  F  F28  1  0.23611200  0.00000000  0.03657000  1
  F  F29  1  0.56642000  0.00000000  0.36865600  1
  F  F30  1  0.10116500  0.00000000  0.29742600  1
  F  F31  1  0.76862700  0.00000000  0.96500400  1
  F  F32  1  0.50066650  0.80289650  0.99998300  1
  F  F33  1  0.33398750  0.30383250  0.33298500  1
  F  F34  1  0.66546350  0.30419250  0.66697700  1
  F  F35  1  0.50066650  0.19710350  0.99998300  1
