# generated using pymatgen
data_Rb4P2PbSe8
_symmetry_space_group_name_H-M   'P 1'
_cell_length_a   9.52941800
_cell_length_b   10.61687800
_cell_length_c   19.39269400
_cell_angle_alpha   90.00000000
_cell_angle_beta   90.00000000
_cell_angle_gamma   90.00000000
_symmetry_Int_Tables_number   1
_chemical_formula_structural   Rb4P2PbSe8
_chemical_formula_sum   'Rb16 P8 Pb4 Se32'
_cell_volume   1962.01059784
_cell_formula_units_Z   4
loop_
 _symmetry_equiv_pos_site_id
 _symmetry_equiv_pos_as_xyz
  1  'x, y, z'
loop_
 _atom_site_type_symbol
 _atom_site_label
 _atom_site_symmetry_multiplicity
 _atom_site_fract_x
 _atom_site_fract_y
 _atom_site_fract_z
 _atom_site_occupancy
  Rb  Rb0  1  0.61547900  0.50000000  0.08644200  1
  Rb  Rb1  1  0.88452100  0.00000000  0.41355800  1
  Rb  Rb2  1  0.38452100  0.00000000  0.08644200  1
  Rb  Rb3  1  0.11547900  0.50000000  0.41355800  1
  Rb  Rb4  1  0.50000000  0.25000000  0.26424200  1
  Rb  Rb5  1  0.00000000  0.75000000  0.23575800  1
  Rb  Rb6  1  0.00000000  0.25000000  0.23575800  1
  Rb  Rb7  1  0.50000000  0.75000000  0.26424200  1
  Rb  Rb8  1  0.11547900  0.00000000  0.58644200  1
  Rb  Rb9  1  0.38452100  0.50000000  0.91355800  1
  Rb  Rb10  1  0.88452100  0.50000000  0.58644200  1
  Rb  Rb11  1  0.61547900  0.00000000  0.91355800  1
  Rb  Rb12  1  0.00000000  0.75000000  0.76424200  1
  Rb  Rb13  1  0.50000000  0.25000000  0.73575800  1
  Rb  Rb14  1  0.50000000  0.75000000  0.73575800  1
  Rb  Rb15  1  0.00000000  0.25000000  0.76424200  1
  P  P16  1  0.79832650  0.00000000  0.12569050  1
  P  P17  1  0.70167350  0.50000000  0.37430950  1
  P  P18  1  0.20167350  0.50000000  0.12569050  1
  P  P19  1  0.29832650  0.00000000  0.37430950  1
  P  P20  1  0.29832650  0.50000000  0.62569050  1
  P  P21  1  0.20167350  0.00000000  0.87430950  1
  P  P22  1  0.70167350  0.00000000  0.62569050  1
  P  P23  1  0.79832650  0.50000000  0.87430950  1
  Pb  Pb24  1  0.00000000  0.75000000  0.00000000  1
  Pb  Pb25  1  0.00000000  0.25000000  0.00000000  1
  Pb  Pb26  1  0.50000000  0.25000000  0.50000000  1
  Pb  Pb27  1  0.50000000  0.75000000  0.50000000  1
  Se  Se28  1  0.75483600  0.50000000  0.26285100  1
  Se  Se29  1  0.74516400  0.00000000  0.23714900  1
  Se  Se30  1  0.24516400  0.00000000  0.26285100  1
  Se  Se31  1  0.25483600  0.50000000  0.23714900  1
  Se  Se32  1  0.79013600  0.32891200  0.42541700  1
  Se  Se33  1  0.70986400  0.82891200  0.07458300  1
  Se  Se34  1  0.20986400  0.17108800  0.42541700  1
  Se  Se35  1  0.29013600  0.67108800  0.07458300  1
  Se  Se36  1  0.70986400  0.17108800  0.07458300  1
  Se  Se37  1  0.79013600  0.67108800  0.42541700  1
  Se  Se38  1  0.29013600  0.32891200  0.07458300  1
  Se  Se39  1  0.20986400  0.82891200  0.42541700  1
  Se  Se40  1  0.97058300  0.50000000  0.10452700  1
  Se  Se41  1  0.52941700  0.00000000  0.39547300  1
  Se  Se42  1  0.02941700  0.00000000  0.10452700  1
  Se  Se43  1  0.47058300  0.50000000  0.39547300  1
  Se  Se44  1  0.25483600  0.00000000  0.76285100  1
  Se  Se45  1  0.24516400  0.50000000  0.73714900  1
  Se  Se46  1  0.74516400  0.50000000  0.76285100  1
  Se  Se47  1  0.75483600  0.00000000  0.73714900  1
  Se  Se48  1  0.29013600  0.82891200  0.92541700  1
  Se  Se49  1  0.20986400  0.32891200  0.57458300  1
  Se  Se50  1  0.70986400  0.67108800  0.92541700  1
  Se  Se51  1  0.79013600  0.17108800  0.57458300  1
  Se  Se52  1  0.20986400  0.67108800  0.57458300  1
  Se  Se53  1  0.29013600  0.17108800  0.92541700  1
  Se  Se54  1  0.79013600  0.82891200  0.57458300  1
  Se  Se55  1  0.70986400  0.32891200  0.92541700  1
  Se  Se56  1  0.47058300  0.00000000  0.60452700  1
  Se  Se57  1  0.02941700  0.50000000  0.89547300  1
  Se  Se58  1  0.52941700  0.50000000  0.60452700  1
  Se  Se59  1  0.97058300  0.00000000  0.89547300  1
