# generated using pymatgen
data_Li3CrO4
_symmetry_space_group_name_H-M   'P 1'
_cell_length_a   6.07471000
_cell_length_b   8.03257400
_cell_length_c   6.21722900
_cell_angle_alpha   90.00000000
_cell_angle_beta   90.00000000
_cell_angle_gamma   90.00000000
_symmetry_Int_Tables_number   1
_chemical_formula_structural   Li3CrO4
_chemical_formula_sum   'Li12 Cr4 O16'
_cell_volume   303.37315580
_cell_formula_units_Z   4
loop_
 _symmetry_equiv_pos_site_id
 _symmetry_equiv_pos_as_xyz
  1  'x, y, z'
loop_
 _atom_site_type_symbol
 _atom_site_label
 _atom_site_symmetry_multiplicity
 _atom_site_fract_x
 _atom_site_fract_y
 _atom_site_fract_z
 _atom_site_occupancy
  Li  Li0  1  0.25826750  0.00048450  0.24888300  1
  Li  Li1  1  0.25826750  0.99951550  0.74888300  1
  Li  Li2  1  0.50000000  0.72750000  0.98637200  1
  Li  Li3  1  0.74173250  0.00048450  0.24888300  1
  Li  Li4  1  0.74173250  0.99951550  0.74888300  1
  Li  Li5  1  0.50000000  0.27250000  0.48637200  1
  Li  Li6  1  0.75826750  0.50048450  0.24888300  1
  Li  Li7  1  0.75826750  0.49951550  0.74888300  1
  Li  Li8  1  0.00000000  0.22750000  0.98637200  1
  Li  Li9  1  0.24173250  0.50048450  0.24888300  1
  Li  Li10  1  0.24173250  0.49951550  0.74888300  1
  Li  Li11  1  0.00000000  0.77250000  0.48637200  1
  Cr  Cr12  1  0.50000000  0.25241400  0.94099000  1
  Cr  Cr13  1  0.50000000  0.74758600  0.44099000  1
  Cr  Cr14  1  0.00000000  0.75241400  0.94099000  1
  Cr  Cr15  1  0.00000000  0.24758600  0.44099000  1
  O  O16  1  0.27475450  0.74930650  0.26409000  1
  O  O17  1  0.50000000  0.04549500  0.02333700  1
  O  O18  1  0.27475450  0.25069350  0.76409000  1
  O  O19  1  0.50000000  0.95450500  0.52333700  1
  O  O20  1  0.50000000  0.53970000  0.52475400  1
  O  O21  1  0.72524550  0.25069350  0.76409000  1
  O  O22  1  0.50000000  0.46030000  0.02475400  1
  O  O23  1  0.72524550  0.74930650  0.26409000  1
  O  O24  1  0.77475450  0.24930650  0.26409000  1
  O  O25  1  0.00000000  0.54549500  0.02333700  1
  O  O26  1  0.77475450  0.75069350  0.76409000  1
  O  O27  1  0.00000000  0.45450500  0.52333700  1
  O  O28  1  0.00000000  0.03970000  0.52475400  1
  O  O29  1  0.22524550  0.75069350  0.76409000  1
  O  O30  1  0.00000000  0.96030000  0.02475400  1
  O  O31  1  0.22524550  0.24930650  0.26409000  1
