# generated using pymatgen
data_TlN3
_symmetry_space_group_name_H-M   'P 1'
_cell_length_a   6.36487800
_cell_length_b   6.36487800
_cell_length_c   7.41409200
_cell_angle_alpha   90.00000000
_cell_angle_beta   90.00000000
_cell_angle_gamma   90.00000000
_symmetry_Int_Tables_number   1
_chemical_formula_structural   TlN3
_chemical_formula_sum   'Tl4 N12'
_cell_volume   300.35726295
_cell_formula_units_Z   4
loop_
 _symmetry_equiv_pos_site_id
 _symmetry_equiv_pos_as_xyz
  1  'x, y, z'
loop_
 _atom_site_type_symbol
 _atom_site_label
 _atom_site_symmetry_multiplicity
 _atom_site_fract_x
 _atom_site_fract_y
 _atom_site_fract_z
 _atom_site_occupancy
  Tl  Tl0  1  0.00000000  0.00000000  0.75000000  1
  Tl  Tl1  1  0.00000000  0.00000000  0.25000000  1
  Tl  Tl2  1  0.50000000  0.50000000  0.25000000  1
  Tl  Tl3  1  0.50000000  0.50000000  0.75000000  1
  N  N4  1  0.13212600  0.36787400  0.50000000  1
  N  N5  1  0.13212600  0.63212600  0.00000000  1
  N  N6  1  0.50000000  0.00000000  0.00000000  1
  N  N7  1  0.00000000  0.50000000  0.00000000  1
  N  N8  1  0.36787400  0.13212600  0.00000000  1
  N  N9  1  0.36787400  0.86787400  0.50000000  1
  N  N10  1  0.63212600  0.86787400  0.00000000  1
  N  N11  1  0.63212600  0.13212600  0.50000000  1
  N  N12  1  0.00000000  0.50000000  0.50000000  1
  N  N13  1  0.50000000  0.00000000  0.50000000  1
  N  N14  1  0.86787400  0.63212600  0.50000000  1
  N  N15  1  0.86787400  0.36787400  0.00000000  1
