# generated using pymatgen
data_Cd(PtO2)3
_symmetry_space_group_name_H-M   'P 1'
_cell_length_a   7.31843800
_cell_length_b   10.31816000
_cell_length_c   3.24146000
_cell_angle_alpha   90.00000000
_cell_angle_beta   90.00000000
_cell_angle_gamma   90.00000000
_symmetry_Int_Tables_number   1
_chemical_formula_structural   Cd(PtO2)3
_chemical_formula_sum   'Cd2 Pt6 O12'
_cell_volume   244.77176683
_cell_formula_units_Z   2
loop_
 _symmetry_equiv_pos_site_id
 _symmetry_equiv_pos_as_xyz
  1  'x, y, z'
loop_
 _atom_site_type_symbol
 _atom_site_label
 _atom_site_symmetry_multiplicity
 _atom_site_fract_x
 _atom_site_fract_y
 _atom_site_fract_z
 _atom_site_occupancy
  Cd  Cd0  1  0.50000000  0.00000000  0.00000000  1
  Cd  Cd1  1  0.00000000  0.50000000  0.00000000  1
  Pt  Pt2  1  0.25000000  0.25000000  0.50000000  1
  Pt  Pt3  1  0.00000000  0.00000000  0.00000000  1
  Pt  Pt4  1  0.25000000  0.75000000  0.50000000  1
  Pt  Pt5  1  0.75000000  0.75000000  0.50000000  1
  Pt  Pt6  1  0.50000000  0.50000000  0.00000000  1
  Pt  Pt7  1  0.75000000  0.25000000  0.50000000  1
  O  O8  1  0.79420400  0.12915700  0.00000000  1
  O  O9  1  0.20579600  0.87084300  0.00000000  1
  O  O10  1  0.79420400  0.87084300  0.00000000  1
  O  O11  1  0.20579600  0.12915700  0.00000000  1
  O  O12  1  0.50000000  0.83815600  0.50000000  1
  O  O13  1  0.50000000  0.16184400  0.50000000  1
  O  O14  1  0.29420400  0.62915700  0.00000000  1
  O  O15  1  0.70579600  0.37084300  0.00000000  1
  O  O16  1  0.29420400  0.37084300  0.00000000  1
  O  O17  1  0.70579600  0.62915700  0.00000000  1
  O  O18  1  0.00000000  0.33815600  0.50000000  1
  O  O19  1  0.00000000  0.66184400  0.50000000  1
