# generated using pymatgen
data_Li8MnFe7(PO4)8
_symmetry_space_group_name_H-M   'P 1'
_cell_length_a   9.50942000
_cell_length_b   12.18110800
_cell_length_c   10.44413200
_cell_angle_alpha   90.00000000
_cell_angle_beta   90.00157446
_cell_angle_gamma   90.00000000
_symmetry_Int_Tables_number   1
_chemical_formula_structural   Li8MnFe7(PO4)8
_chemical_formula_sum   'Li16 Mn2 Fe14 P16 O64'
_cell_volume   1209.79887141
_cell_formula_units_Z   2
loop_
 _symmetry_equiv_pos_site_id
 _symmetry_equiv_pos_as_xyz
  1  'x, y, z'
loop_
 _atom_site_type_symbol
 _atom_site_label
 _atom_site_symmetry_multiplicity
 _atom_site_fract_x
 _atom_site_fract_y
 _atom_site_fract_z
 _atom_site_occupancy
  Li  Li0  1  0.62498250  0.37495050  0.99992600  1
  Li  Li1  1  0.37515500  0.62512300  0.50035800  1
  Li  Li2  1  0.37515500  0.37487700  0.50035800  1
  Li  Li3  1  0.37491000  0.12537200  0.50029300  1
  Li  Li4  1  0.62523100  0.12525200  0.99928400  1
  Li  Li5  1  0.62498250  0.62504950  0.99992600  1
  Li  Li6  1  0.62523100  0.87474800  0.99928400  1
  Li  Li7  1  0.37491000  0.87462800  0.50029300  1
  Li  Li8  1  0.12498250  0.87495050  0.99992600  1
  Li  Li9  1  0.87515500  0.12512300  0.50035800  1
  Li  Li10  1  0.87515500  0.87487700  0.50035800  1
  Li  Li11  1  0.87491000  0.62537200  0.50029300  1
  Li  Li12  1  0.12523100  0.62525200  0.99928400  1
  Li  Li13  1  0.12498250  0.12504950  0.99992600  1
  Li  Li14  1  0.12523100  0.37474800  0.99928400  1
  Li  Li15  1  0.87491000  0.37462800  0.50029300  1
  Mn  Mn16  1  0.61243400  0.00000000  0.28206300  1
  Mn  Mn17  1  0.11243400  0.50000000  0.28206300  1
  Fe  Fe18  1  0.88863700  0.00000000  0.78176500  1
  Fe  Fe19  1  0.36175950  0.24994350  0.21806000  1
  Fe  Fe20  1  0.63824450  0.25023050  0.71814200  1
  Fe  Fe21  1  0.63824450  0.74976950  0.71814200  1
  Fe  Fe22  1  0.11193900  0.00000000  0.28186400  1
  Fe  Fe23  1  0.38844700  0.00000000  0.78195700  1
  Fe  Fe24  1  0.36175950  0.75005650  0.21806000  1
  Fe  Fe25  1  0.38863700  0.50000000  0.78176500  1
  Fe  Fe26  1  0.86175950  0.74994350  0.21806000  1
  Fe  Fe27  1  0.13824450  0.75023050  0.71814200  1
  Fe  Fe28  1  0.13824450  0.24976950  0.71814200  1
  Fe  Fe29  1  0.61193900  0.50000000  0.28186400  1
  Fe  Fe30  1  0.88844700  0.50000000  0.78195700  1
  Fe  Fe31  1  0.86175950  0.25005650  0.21806000  1
  P  P32  1  0.41606250  0.24993450  0.90509500  1
  P  P33  1  0.83545600  0.00000000  0.09340500  1
  P  P34  1  0.66623300  0.00000000  0.59573700  1
  P  P35  1  0.16626200  0.00000000  0.59496600  1
  P  P36  1  0.58306850  0.74892650  0.40561800  1
  P  P37  1  0.58306850  0.25107350  0.40561800  1
  P  P38  1  0.41606250  0.75006550  0.90509500  1
  P  P39  1  0.33328500  0.00000000  0.09417800  1
  P  P40  1  0.91606250  0.74993450  0.90509500  1
  P  P41  1  0.33545600  0.50000000  0.09340500  1
  P  P42  1  0.16623300  0.50000000  0.59573700  1
  P  P43  1  0.66626200  0.50000000  0.59496600  1
  P  P44  1  0.08306850  0.24892650  0.40561800  1
  P  P45  1  0.08306850  0.75107350  0.40561800  1
  P  P46  1  0.91606250  0.25006550  0.90509500  1
  P  P47  1  0.83328500  0.50000000  0.09417800  1
  O  O48  1  0.51707250  0.35312050  0.33546200  1
  O  O49  1  0.99687700  0.00000000  0.09605800  1
  O  O50  1  0.48299450  0.35149250  0.83459100  1
  O  O51  1  0.47815650  0.24988350  0.04301600  1
  O  O52  1  0.77223000  0.00000000  0.95599200  1
  O  O53  1  0.76903400  0.89826800  0.16389500  1
  O  O54  1  0.76903400  0.10173200  0.16389500  1
  O  O55  1  0.26690550  0.10148750  0.16517700  1
  O  O56  1  0.25457050  0.24994550  0.90275200  1
  O  O57  1  0.74459550  0.24953350  0.40258200  1
  O  O58  1  0.74459550  0.75046650  0.40258200  1
  O  O59  1  0.73294150  0.10166650  0.66607600  1
  O  O60  1  0.23322050  0.10157750  0.66558300  1
  O  O61  1  0.73294150  0.89833350  0.66607600  1
  O  O62  1  0.22840000  0.00000000  0.45707100  1
  O  O63  1  0.72897200  0.00000000  0.45807000  1
  O  O64  1  0.52199600  0.74917100  0.54394500  1
  O  O65  1  0.52199600  0.25082900  0.54394500  1
  O  O66  1  0.51363300  0.15076200  0.33535500  1
  O  O67  1  0.51363300  0.84923800  0.33535500  1
  O  O68  1  0.51707250  0.64687950  0.33546200  1
  O  O69  1  0.00475900  0.00000000  0.59747400  1
  O  O70  1  0.50492100  0.00000000  0.59712500  1
  O  O71  1  0.49470000  0.00000000  0.09658400  1
  O  O72  1  0.48296950  0.14833550  0.83448400  1
  O  O73  1  0.48296950  0.85166450  0.83448400  1
  O  O74  1  0.48299450  0.64850750  0.83459100  1
  O  O75  1  0.47815650  0.75011650  0.04301600  1
  O  O76  1  0.27144100  0.00000000  0.95630300  1
  O  O77  1  0.26690550  0.89851250  0.16517700  1
  O  O78  1  0.25457050  0.75005450  0.90275200  1
  O  O79  1  0.23322050  0.89842250  0.66558300  1
  O  O80  1  0.01707250  0.85312050  0.33546200  1
  O  O81  1  0.49687700  0.50000000  0.09605800  1
  O  O82  1  0.98299450  0.85149250  0.83459100  1
  O  O83  1  0.97815650  0.74988350  0.04301600  1
  O  O84  1  0.27223000  0.50000000  0.95599200  1
  O  O85  1  0.26903400  0.39826800  0.16389500  1
  O  O86  1  0.26903400  0.60173200  0.16389500  1
  O  O87  1  0.76690550  0.60148750  0.16517700  1
  O  O88  1  0.75457050  0.74994550  0.90275200  1
  O  O89  1  0.24459550  0.74953350  0.40258200  1
  O  O90  1  0.24459550  0.25046650  0.40258200  1
  O  O91  1  0.23294150  0.60166650  0.66607600  1
  O  O92  1  0.73322050  0.60157750  0.66558300  1
  O  O93  1  0.23294150  0.39833350  0.66607600  1
  O  O94  1  0.72840000  0.50000000  0.45707100  1
  O  O95  1  0.22897200  0.50000000  0.45807000  1
  O  O96  1  0.02199600  0.24917100  0.54394500  1
  O  O97  1  0.02199600  0.75082900  0.54394500  1
  O  O98  1  0.01363300  0.65076200  0.33535500  1
  O  O99  1  0.01363300  0.34923800  0.33535500  1
  O  O100  1  0.01707250  0.14687950  0.33546200  1
  O  O101  1  0.50475900  0.50000000  0.59747400  1
  O  O102  1  0.00492100  0.50000000  0.59712500  1
  O  O103  1  0.99470000  0.50000000  0.09658400  1
  O  O104  1  0.98296950  0.64833550  0.83448400  1
  O  O105  1  0.98296950  0.35166450  0.83448400  1
  O  O106  1  0.98299450  0.14850750  0.83459100  1
  O  O107  1  0.97815650  0.25011650  0.04301600  1
  O  O108  1  0.77144100  0.50000000  0.95630300  1
  O  O109  1  0.76690550  0.39851250  0.16517700  1
  O  O110  1  0.75457050  0.25005450  0.90275200  1
  O  O111  1  0.73322050  0.39842250  0.66558300  1
