# generated using pymatgen
data_K2Y4Cu4Se9
_symmetry_space_group_name_H-M   'P 1'
_cell_length_a   14.35837000
_cell_length_b   4.12312200
_cell_length_c   16.55627114
_cell_angle_alpha   90.00000000
_cell_angle_beta   109.39439476
_cell_angle_gamma   90.00000000
_symmetry_Int_Tables_number   1
_chemical_formula_structural   K2Y4Cu4Se9
_chemical_formula_sum   'K4 Y8 Cu8 Se18'
_cell_volume   924.53432682
_cell_formula_units_Z   2
loop_
 _symmetry_equiv_pos_site_id
 _symmetry_equiv_pos_as_xyz
  1  'x, y, z'
loop_
 _atom_site_type_symbol
 _atom_site_label
 _atom_site_symmetry_multiplicity
 _atom_site_fract_x
 _atom_site_fract_y
 _atom_site_fract_z
 _atom_site_occupancy
  K  K0  1  0.03269300  0.00000000  0.26895300  1
  K  K1  1  0.96730700  0.00000000  0.73104700  1
  K  K2  1  0.53269300  0.50000000  0.26895300  1
  K  K3  1  0.46730700  0.50000000  0.73104700  1
  Y  Y4  1  0.73190800  0.50000000  0.10304300  1
  Y  Y5  1  0.84487900  0.50000000  0.44411000  1
  Y  Y6  1  0.15512100  0.50000000  0.55589000  1
  Y  Y7  1  0.26809200  0.50000000  0.89695700  1
  Y  Y8  1  0.23190800  0.00000000  0.10304300  1
  Y  Y9  1  0.34487900  0.00000000  0.44411000  1
  Y  Y10  1  0.65512100  0.00000000  0.55589000  1
  Y  Y11  1  0.76809200  0.00000000  0.89695700  1
  Cu  Cu12  1  0.92521500  0.50000000  0.02908900  1
  Cu  Cu13  1  0.76001600  0.00000000  0.27138300  1
  Cu  Cu14  1  0.23998400  0.00000000  0.72861700  1
  Cu  Cu15  1  0.07478500  0.50000000  0.97091100  1
  Cu  Cu16  1  0.42521500  0.00000000  0.02908900  1
  Cu  Cu17  1  0.26001600  0.50000000  0.27138300  1
  Cu  Cu18  1  0.73998400  0.50000000  0.72861700  1
  Cu  Cu19  1  0.57478500  0.00000000  0.97091100  1
  Se  Se20  1  0.86540100  0.00000000  0.07803900  1
  Se  Se21  1  0.60710800  0.00000000  0.12956500  1
  Se  Se22  1  0.85560900  0.50000000  0.27735800  1
  Se  Se23  1  0.69814700  0.00000000  0.39520800  1
  Se  Se24  1  0.00000000  0.00000000  0.50000000  1
  Se  Se25  1  0.30185300  0.00000000  0.60479200  1
  Se  Se26  1  0.14439100  0.50000000  0.72264200  1
  Se  Se27  1  0.39289200  0.00000000  0.87043500  1
  Se  Se28  1  0.13459900  0.00000000  0.92196100  1
  Se  Se29  1  0.36540100  0.50000000  0.07803900  1
  Se  Se30  1  0.10710800  0.50000000  0.12956500  1
  Se  Se31  1  0.35560900  0.00000000  0.27735800  1
  Se  Se32  1  0.19814700  0.50000000  0.39520800  1
  Se  Se33  1  0.50000000  0.50000000  0.50000000  1
  Se  Se34  1  0.80185300  0.50000000  0.60479200  1
  Se  Se35  1  0.64439100  0.00000000  0.72264200  1
  Se  Se36  1  0.89289200  0.50000000  0.87043500  1
  Se  Se37  1  0.63459900  0.50000000  0.92196100  1
