# generated using pymatgen
data_Ho2TiO5
_symmetry_space_group_name_H-M   'P 1'
_cell_length_a   3.62257000
_cell_length_b   7.45058000
_cell_length_c   15.46651300
_cell_angle_alpha   90.00000000
_cell_angle_beta   90.00000000
_cell_angle_gamma   90.00000000
_symmetry_Int_Tables_number   1
_chemical_formula_structural   Ho2TiO5
_chemical_formula_sum   'Ho8 Ti4 O20'
_cell_volume   417.44501523
_cell_formula_units_Z   4
loop_
 _symmetry_equiv_pos_site_id
 _symmetry_equiv_pos_as_xyz
  1  'x, y, z'
loop_
 _atom_site_type_symbol
 _atom_site_label
 _atom_site_symmetry_multiplicity
 _atom_site_fract_x
 _atom_site_fract_y
 _atom_site_fract_z
 _atom_site_occupancy
  Ho  Ho0  1  0.25000000  0.60048200  0.58409300  1
  Ho  Ho1  1  0.25000000  0.66108600  0.23749000  1
  Ho  Ho2  1  0.75000000  0.83891400  0.73749000  1
  Ho  Ho3  1  0.75000000  0.89951800  0.08409300  1
  Ho  Ho4  1  0.25000000  0.10048200  0.91590700  1
  Ho  Ho5  1  0.25000000  0.16108600  0.26251000  1
  Ho  Ho6  1  0.75000000  0.33891400  0.76251000  1
  Ho  Ho7  1  0.75000000  0.39951800  0.41590700  1
  Ti  Ti8  1  0.25000000  0.61341200  0.92356900  1
  Ti  Ti9  1  0.75000000  0.88658800  0.42356900  1
  Ti  Ti10  1  0.25000000  0.11341200  0.57643100  1
  Ti  Ti11  1  0.75000000  0.38658800  0.07643100  1
  O  O12  1  0.75000000  0.56997200  0.67385200  1
  O  O13  1  0.75000000  0.57332200  0.95330700  1
  O  O14  1  0.75000000  0.62091800  0.14837300  1
  O  O15  1  0.75000000  0.65786200  0.49497800  1
  O  O16  1  0.25000000  0.74662800  0.82254000  1
  O  O17  1  0.75000000  0.75337200  0.32254000  1
  O  O18  1  0.25000000  0.84213800  0.99497800  1
  O  O19  1  0.25000000  0.87908200  0.64837300  1
  O  O20  1  0.25000000  0.92667800  0.45330700  1
  O  O21  1  0.25000000  0.93002800  0.17385200  1
  O  O22  1  0.75000000  0.06997200  0.82614800  1
  O  O23  1  0.75000000  0.07332200  0.54669300  1
  O  O24  1  0.75000000  0.12091800  0.35162700  1
  O  O25  1  0.75000000  0.15786200  0.00502200  1
  O  O26  1  0.25000000  0.24662800  0.67746000  1
  O  O27  1  0.75000000  0.25337200  0.17746000  1
  O  O28  1  0.25000000  0.34213800  0.50502200  1
  O  O29  1  0.25000000  0.37908200  0.85162700  1
  O  O30  1  0.25000000  0.42667800  0.04669300  1
  O  O31  1  0.25000000  0.43002800  0.32614800  1
