# generated using pymatgen
data_LiMn4(PO4)3
_symmetry_space_group_name_H-M   'P 1'
_cell_length_a   9.65837221
_cell_length_b   9.65837221
_cell_length_c   6.20939900
_cell_angle_alpha   90.00000000
_cell_angle_beta   90.00000000
_cell_angle_gamma   120.00000000
_symmetry_Int_Tables_number   1
_chemical_formula_structural   LiMn4(PO4)3
_chemical_formula_sum   'Li2 Mn8 P6 O24'
_cell_volume   501.63528286
_cell_formula_units_Z   2
loop_
 _symmetry_equiv_pos_site_id
 _symmetry_equiv_pos_as_xyz
  1  'x, y, z'
loop_
 _atom_site_type_symbol
 _atom_site_label
 _atom_site_symmetry_multiplicity
 _atom_site_fract_x
 _atom_site_fract_y
 _atom_site_fract_z
 _atom_site_occupancy
  Li  Li0  1  0.66666667  0.33333333  0.52804100  1
  Li  Li1  1  0.33333333  0.66666667  0.02804100  1
  Mn  Mn2  1  0.69649000  0.73257200  0.74922200  1
  Mn  Mn3  1  0.66666667  0.33333333  0.99246300  1
  Mn  Mn4  1  0.26742800  0.96391800  0.74922200  1
  Mn  Mn5  1  0.03608200  0.30351000  0.74922200  1
  Mn  Mn6  1  0.96391800  0.69649000  0.24922200  1
  Mn  Mn7  1  0.73257200  0.03608200  0.24922200  1
  Mn  Mn8  1  0.33333333  0.66666667  0.49246300  1
  Mn  Mn9  1  0.30351000  0.26742800  0.24922200  1
  P  P10  1  0.63039400  0.61143000  0.24985100  1
  P  P11  1  0.98103600  0.36960600  0.24985100  1
  P  P12  1  0.38857000  0.01896400  0.24985100  1
  P  P13  1  0.61143000  0.98103600  0.74985100  1
  P  P14  1  0.01896400  0.63039400  0.74985100  1
  P  P15  1  0.36960600  0.38857000  0.74985100  1
  O  O16  1  0.74881900  0.68207900  0.05490300  1
  O  O17  1  0.74737800  0.67646800  0.44573200  1
  O  O18  1  0.55560500  0.42454800  0.24044800  1
  O  O19  1  0.84304100  0.49921000  0.75303400  1
  O  O20  1  0.50079000  0.34383100  0.75303400  1
  O  O21  1  0.86894300  0.44439500  0.24044800  1
  O  O22  1  0.32353200  0.07091000  0.44573200  1
  O  O23  1  0.31792100  0.06674000  0.05490300  1
  O  O24  1  0.65616900  0.15695900  0.75303400  1
  O  O25  1  0.57545200  0.13105700  0.24044800  1
  O  O26  1  0.92909000  0.25262200  0.44573200  1
  O  O27  1  0.93326000  0.25118100  0.05490300  1
  O  O28  1  0.07091000  0.74737800  0.94573200  1
  O  O29  1  0.06674000  0.74881900  0.55490300  1
  O  O30  1  0.42454800  0.86894300  0.74044800  1
  O  O31  1  0.34383100  0.84304100  0.25303400  1
  O  O32  1  0.68207900  0.93326000  0.55490300  1
  O  O33  1  0.67646800  0.92909000  0.94573200  1
  O  O34  1  0.13105700  0.55560500  0.74044800  1
  O  O35  1  0.49921000  0.65616900  0.25303400  1
  O  O36  1  0.15695900  0.50079000  0.25303400  1
  O  O37  1  0.44439500  0.57545200  0.74044800  1
  O  O38  1  0.25118100  0.31792100  0.55490300  1
  O  O39  1  0.25262200  0.32353200  0.94573200  1
