# generated using pymatgen
data_Ba3NaNbO6
_symmetry_space_group_name_H-M   'P 1'
_cell_length_a   10.41032244
_cell_length_b   10.41032244
_cell_length_c   12.12284114
_cell_angle_alpha   90.00000000
_cell_angle_beta   90.00000000
_cell_angle_gamma   120.00000000
_symmetry_Int_Tables_number   1
_chemical_formula_structural   Ba3NaNbO6
_chemical_formula_sum   'Ba18 Na6 Nb6 O36'
_cell_volume   1137.79339459
_cell_formula_units_Z   6
loop_
 _symmetry_equiv_pos_site_id
 _symmetry_equiv_pos_as_xyz
  1  'x, y, z'
loop_
 _atom_site_type_symbol
 _atom_site_label
 _atom_site_symmetry_multiplicity
 _atom_site_fract_x
 _atom_site_fract_y
 _atom_site_fract_z
 _atom_site_occupancy
  Ba  Ba0  1  0.31441167  0.33333333  0.58333333  1
  Ba  Ba1  1  0.66666667  0.98107833  0.58333333  1
  Ba  Ba2  1  0.01892167  0.68558833  0.58333333  1
  Ba  Ba3  1  0.68558833  0.66666667  0.41666667  1
  Ba  Ba4  1  0.33333333  0.01892167  0.41666667  1
  Ba  Ba5  1  0.98107833  0.31441167  0.41666667  1
  Ba  Ba6  1  0.98107833  0.66666667  0.91666667  1
  Ba  Ba7  1  0.33333333  0.31441167  0.91666667  1
  Ba  Ba8  1  0.68558833  0.01892167  0.91666667  1
  Ba  Ba9  1  0.35225500  0.00000000  0.75000000  1
  Ba  Ba10  1  0.00000000  0.35225500  0.75000000  1
  Ba  Ba11  1  0.64774500  0.64774500  0.75000000  1
  Ba  Ba12  1  0.64774500  0.00000000  0.25000000  1
  Ba  Ba13  1  0.00000000  0.64774500  0.25000000  1
  Ba  Ba14  1  0.35225500  0.35225500  0.25000000  1
  Ba  Ba15  1  0.01892167  0.33333333  0.08333333  1
  Ba  Ba16  1  0.66666667  0.68558833  0.08333333  1
  Ba  Ba17  1  0.31441167  0.98107833  0.08333333  1
  Na  Na18  1  0.00000000  0.00000000  0.75000000  1
  Na  Na19  1  0.00000000  0.00000000  0.25000000  1
  Na  Na20  1  0.66666667  0.33333333  0.08333333  1
  Na  Na21  1  0.66666667  0.33333333  0.58333333  1
  Na  Na22  1  0.33333333  0.66666667  0.41666667  1
  Na  Na23  1  0.33333333  0.66666667  0.91666667  1
  Nb  Nb24  1  0.00000000  0.00000000  0.50000000  1
  Nb  Nb25  1  0.00000000  0.00000000  0.00000000  1
  Nb  Nb26  1  0.66666667  0.33333333  0.83333333  1
  Nb  Nb27  1  0.66666667  0.33333333  0.33333333  1
  Nb  Nb28  1  0.33333333  0.66666667  0.16666667  1
  Nb  Nb29  1  0.33333333  0.66666667  0.66666667  1
  O  O30  1  0.16362367  0.51780033  0.56847833  1
  O  O31  1  0.48219967  0.64582333  0.56847833  1
  O  O32  1  0.35417667  0.83637633  0.56847833  1
  O  O33  1  0.97915667  0.14886633  0.59818833  1
  O  O34  1  0.85113367  0.83029033  0.59818833  1
  O  O35  1  0.16970967  0.02084333  0.59818833  1
  O  O36  1  0.83637633  0.48219967  0.43152167  1
  O  O37  1  0.51780033  0.35417667  0.43152167  1
  O  O38  1  0.64582333  0.16362367  0.43152167  1
  O  O39  1  0.02084333  0.85113367  0.40181167  1
  O  O40  1  0.83029033  0.97915667  0.40181167  1
  O  O41  1  0.14886633  0.16970967  0.40181167  1
  O  O42  1  0.83029033  0.85113367  0.90181167  1
  O  O43  1  0.14886633  0.97915667  0.90181167  1
  O  O44  1  0.02084333  0.16970967  0.90181167  1
  O  O45  1  0.64582333  0.48219967  0.93152167  1
  O  O46  1  0.51780033  0.16362367  0.93152167  1
  O  O47  1  0.83637633  0.35417667  0.93152167  1
  O  O48  1  0.50304300  0.81553300  0.76485500  1
  O  O49  1  0.18446700  0.68751000  0.76485500  1
  O  O50  1  0.31249000  0.49695700  0.76485500  1
  O  O51  1  0.68751000  0.18446700  0.73514500  1
  O  O52  1  0.49695700  0.31249000  0.73514500  1
  O  O53  1  0.81553300  0.50304300  0.73514500  1
  O  O54  1  0.49695700  0.18446700  0.23514500  1
  O  O55  1  0.81553300  0.31249000  0.23514500  1
  O  O56  1  0.68751000  0.50304300  0.23514500  1
  O  O57  1  0.31249000  0.81553300  0.26485500  1
  O  O58  1  0.18446700  0.49695700  0.26485500  1
  O  O59  1  0.50304300  0.68751000  0.26485500  1
  O  O60  1  0.16970967  0.14886633  0.09818833  1
  O  O61  1  0.85113367  0.02084333  0.09818833  1
  O  O62  1  0.97915667  0.83029033  0.09818833  1
  O  O63  1  0.35417667  0.51780033  0.06847833  1
  O  O64  1  0.16362367  0.64582333  0.06847833  1
  O  O65  1  0.48219967  0.83637633  0.06847833  1
