# generated using pymatgen
data_Li4Ti3V2Cu3O16
_symmetry_space_group_name_H-M   'P 1'
_cell_length_a   10.24452600
_cell_length_b   5.91886800
_cell_length_c   9.73557506
_cell_angle_alpha   90.00000000
_cell_angle_beta   91.02375511
_cell_angle_gamma   90.00000000
_symmetry_Int_Tables_number   1
_chemical_formula_structural   Li4Ti3V2Cu3O16
_chemical_formula_sum   'Li8 Ti6 V4 Cu6 O32'
_cell_volume   590.23206929
_cell_formula_units_Z   2
loop_
 _symmetry_equiv_pos_site_id
 _symmetry_equiv_pos_as_xyz
  1  'x, y, z'
loop_
 _atom_site_type_symbol
 _atom_site_label
 _atom_site_symmetry_multiplicity
 _atom_site_fract_x
 _atom_site_fract_y
 _atom_site_fract_z
 _atom_site_occupancy
  Li  Li0  1  0.32663600  0.00000000  0.09350400  1
  Li  Li1  1  0.00698600  0.00000000  0.01621000  1
  Li  Li2  1  0.00308300  0.00000000  0.50635400  1
  Li  Li3  1  0.66461600  0.00000000  0.59381600  1
  Li  Li4  1  0.82663600  0.50000000  0.09350400  1
  Li  Li5  1  0.50698600  0.50000000  0.01621000  1
  Li  Li6  1  0.50308300  0.50000000  0.50635400  1
  Li  Li7  1  0.16461600  0.50000000  0.59381600  1
  Ti  Ti8  1  0.40425450  0.25030650  0.77754600  1
  Ti  Ti9  1  0.40425450  0.74969350  0.77754600  1
  Ti  Ti10  1  0.81846800  0.00000000  0.26292400  1
  Ti  Ti11  1  0.90425450  0.75030650  0.77754600  1
  Ti  Ti12  1  0.90425450  0.24969350  0.77754600  1
  Ti  Ti13  1  0.31846800  0.50000000  0.26292400  1
  V  V14  1  0.33833600  0.00000000  0.50083500  1
  V  V15  1  0.63837400  0.00000000  0.01381700  1
  V  V16  1  0.83833600  0.50000000  0.50083500  1
  V  V17  1  0.13837400  0.50000000  0.01381700  1
  Cu  Cu18  1  0.17126700  0.00000000  0.79105800  1
  Cu  Cu19  1  0.58260450  0.24476250  0.29682300  1
  Cu  Cu20  1  0.58260450  0.75523750  0.29682300  1
  Cu  Cu21  1  0.67126700  0.50000000  0.79105800  1
  Cu  Cu22  1  0.08260450  0.74476250  0.29682300  1
  Cu  Cu23  1  0.08260450  0.25523750  0.29682300  1
  O  O24  1  0.41145750  0.23815450  0.41327400  1
  O  O25  1  0.48284300  0.00000000  0.66582100  1
  O  O26  1  0.33805900  0.00000000  0.89080500  1
  O  O27  1  0.00493300  0.00000000  0.69722300  1
  O  O28  1  0.99961700  0.00000000  0.21012800  1
  O  O29  1  0.41145750  0.76184550  0.41327400  1
  O  O30  1  0.27062800  0.23335500  0.65240600  1
  O  O31  1  0.27062800  0.76664500  0.65240600  1
  O  O32  1  0.84004700  0.00000000  0.89512000  1
  O  O33  1  0.18251800  0.00000000  0.42986400  1
  O  O34  1  0.74629150  0.21716050  0.14959100  1
  O  O35  1  0.74629150  0.78283950  0.14959100  1
  O  O36  1  0.67073000  0.00000000  0.38829500  1
  O  O37  1  0.58381850  0.23467350  0.91189100  1
  O  O38  1  0.51604700  0.00000000  0.13331300  1
  O  O39  1  0.58381850  0.76532650  0.91189100  1
  O  O40  1  0.91145750  0.73815450  0.41327400  1
  O  O41  1  0.98284300  0.50000000  0.66582100  1
  O  O42  1  0.83805900  0.50000000  0.89080500  1
  O  O43  1  0.50493300  0.50000000  0.69722300  1
  O  O44  1  0.49961700  0.50000000  0.21012800  1
  O  O45  1  0.91145750  0.26184550  0.41327400  1
  O  O46  1  0.77062800  0.73335500  0.65240600  1
  O  O47  1  0.77062800  0.26664500  0.65240600  1
  O  O48  1  0.34004700  0.50000000  0.89512000  1
  O  O49  1  0.68251800  0.50000000  0.42986400  1
  O  O50  1  0.24629150  0.71716050  0.14959100  1
  O  O51  1  0.24629150  0.28283950  0.14959100  1
  O  O52  1  0.17073000  0.50000000  0.38829500  1
  O  O53  1  0.08381850  0.73467350  0.91189100  1
  O  O54  1  0.01604700  0.50000000  0.13331300  1
  O  O55  1  0.08381850  0.26532650  0.91189100  1
