# generated using pymatgen
data_Zn3In2O6
_symmetry_space_group_name_H-M   'P 1'
_cell_length_a   5.91031600
_cell_length_b   6.83546342
_cell_length_c   14.51476520
_cell_angle_alpha   96.88331720
_cell_angle_beta   94.02393720
_cell_angle_gamma   89.91008480
_symmetry_Int_Tables_number   1
_chemical_formula_structural   Zn3In2O6
_chemical_formula_sum   'Zn12 In8 O24'
_cell_volume   580.71731331
_cell_formula_units_Z   4
loop_
 _symmetry_equiv_pos_site_id
 _symmetry_equiv_pos_as_xyz
  1  'x, y, z'
loop_
 _atom_site_type_symbol
 _atom_site_label
 _atom_site_symmetry_multiplicity
 _atom_site_fract_x
 _atom_site_fract_y
 _atom_site_fract_z
 _atom_site_occupancy
  Zn  Zn0  1  0.12964000  0.19303500  0.78572900  1
  Zn  Zn1  1  0.06246200  0.10157100  0.40449300  1
  Zn  Zn2  1  0.62752600  0.44881300  0.78529400  1
  Zn  Zn3  1  0.56699600  0.35071200  0.40548600  1
  Zn  Zn4  1  0.86882100  0.30773000  0.21141000  1
  Zn  Zn5  1  0.13413100  0.70007800  0.78748800  1
  Zn  Zn6  1  0.43289100  0.65836400  0.60520700  1
  Zn  Zn7  1  0.37184900  0.55325700  0.21487300  1
  Zn  Zn8  1  0.63308200  0.94309400  0.78511400  1
  Zn  Zn9  1  0.56995700  0.85137800  0.40787800  1
  Zn  Zn10  1  0.93236600  0.89494400  0.60533000  1
  Zn  Zn11  1  0.86802200  0.79971300  0.21488100  1
  In  In12  1  0.99656400  0.99923100  0.99797900  1
  In  In13  1  0.43326700  0.13805900  0.59188800  1
  In  In14  1  0.50038600  0.25065400  0.99741600  1
  In  In15  1  0.36982600  0.05578200  0.22279800  1
  In  In16  1  0.00119800  0.50041200  0.00013900  1
  In  In17  1  0.93133400  0.40510600  0.59424100  1
  In  In18  1  0.07155500  0.60674100  0.40617600  1
  In  In19  1  0.50103500  0.74744500  0.99848200  1
  O  O20  1  0.08493600  0.13157900  0.57637200  1
  O  O21  1  0.15414000  0.23044900  0.92496400  1
  O  O22  1  0.45855300  0.18514400  0.74547000  1
  O  O23  1  0.02735600  0.06688500  0.25401000  1
  O  O24  1  0.39998700  0.10515900  0.42024000  1
  O  O25  1  0.34529300  0.01947500  0.07424000  1
  O  O26  1  0.58020000  0.40368000  0.57535200  1
  O  O27  1  0.65634100  0.48088700  0.92427900  1
  O  O28  1  0.95875600  0.43861200  0.74565900  1
  O  O29  1  0.55208000  0.32130300  0.25516000  1
  O  O30  1  0.90091400  0.35273900  0.43364000  1
  O  O31  1  0.84549900  0.26811200  0.07287100  1
  O  O32  1  0.10579600  0.65532700  0.56839500  1
  O  O33  1  0.15445100  0.73130600  0.92635300  1
  O  O34  1  0.04420900  0.56072100  0.25200200  1
  O  O35  1  0.45589000  0.68756600  0.74775500  1
  O  O36  1  0.34777800  0.51765300  0.07428400  1
  O  O37  1  0.41857000  0.60377200  0.41628300  1
  O  O38  1  0.60715600  0.87880700  0.57317300  1
  O  O39  1  0.65108000  0.98017900  0.92485800  1
  O  O40  1  0.95856000  0.93490300  0.74817800  1
  O  O41  1  0.54698200  0.80466100  0.25323500  1
  O  O42  1  0.89666000  0.86547900  0.41638300  1
  O  O43  1  0.84590500  0.76948400  0.07454800  1
