# generated using pymatgen
data_Li8V3P8O29
_symmetry_space_group_name_H-M   'P 1'
_cell_length_a   17.15977800
_cell_length_b   9.90413600
_cell_length_c   13.85928206
_cell_angle_alpha   90.00000000
_cell_angle_beta   90.08447228
_cell_angle_gamma   90.00000000
_symmetry_Int_Tables_number   1
_chemical_formula_structural   Li8V3P8O29
_chemical_formula_sum   'Li32 V12 P32 O116'
_cell_volume   2355.42088670
_cell_formula_units_Z   4
loop_
 _symmetry_equiv_pos_site_id
 _symmetry_equiv_pos_as_xyz
  1  'x, y, z'
loop_
 _atom_site_type_symbol
 _atom_site_label
 _atom_site_symmetry_multiplicity
 _atom_site_fract_x
 _atom_site_fract_y
 _atom_site_fract_z
 _atom_site_occupancy
  Li  Li0  1  0.54563100  0.22977200  0.06350200  1
  Li  Li1  1  0.61262250  0.29543850  0.56039100  1
  Li  Li2  1  0.54563100  0.77022800  0.56350200  1
  Li  Li3  1  0.66629950  0.99621850  0.87981900  1
  Li  Li4  1  0.66629950  0.00378150  0.37981900  1
  Li  Li5  1  0.61262250  0.70456150  0.06039100  1
  Li  Li6  1  0.65817900  0.56661900  0.43939800  1
  Li  Li7  1  0.84058000  0.06697600  0.06317700  1
  Li  Li8  1  0.65817900  0.43338100  0.93939800  1
  Li  Li9  1  0.84058000  0.93302400  0.56317700  1
  Li  Li10  1  0.88809400  0.79637600  0.93653800  1
  Li  Li11  1  0.83255250  0.50307050  0.62016000  1
  Li  Li12  1  0.83255250  0.49692950  0.12016000  1
  Li  Li13  1  0.95400100  0.72689300  0.43697700  1
  Li  Li14  1  0.88809400  0.20362400  0.43653800  1
  Li  Li15  1  0.95400100  0.27310700  0.93697700  1
  Li  Li16  1  0.04563100  0.72977200  0.06350200  1
  Li  Li17  1  0.11262250  0.79543850  0.56039100  1
  Li  Li18  1  0.04563100  0.27022800  0.56350200  1
  Li  Li19  1  0.16629950  0.49621850  0.87981900  1
  Li  Li20  1  0.16629950  0.50378150  0.37981900  1
  Li  Li21  1  0.11262250  0.20456150  0.06039100  1
  Li  Li22  1  0.15817900  0.06661900  0.43939800  1
  Li  Li23  1  0.34058000  0.56697600  0.06317700  1
  Li  Li24  1  0.15817900  0.93338100  0.93939800  1
  Li  Li25  1  0.34058000  0.43302400  0.56317700  1
  Li  Li26  1  0.38809400  0.29637600  0.93653800  1
  Li  Li27  1  0.33255250  0.00307050  0.62016000  1
  Li  Li28  1  0.33255250  0.99692950  0.12016000  1
  Li  Li29  1  0.45400100  0.22689300  0.43697700  1
  Li  Li30  1  0.38809400  0.70362400  0.43653800  1
  Li  Li31  1  0.45400100  0.77310700  0.93697700  1
  V  V32  1  0.50047300  0.06925200  0.24961800  1
  V  V33  1  0.50047300  0.93074800  0.74961800  1
  V  V34  1  0.71576800  0.28432800  0.75012500  1
  V  V35  1  0.78510300  0.21578900  0.25024800  1
  V  V36  1  0.71576800  0.71567200  0.25012500  1
  V  V37  1  0.78510300  0.78421100  0.75024800  1
  V  V38  1  0.00047300  0.56925200  0.24961800  1
  V  V39  1  0.00047300  0.43074800  0.74961800  1
  V  V40  1  0.21576800  0.78432800  0.75012500  1
  V  V41  1  0.28510300  0.71578900  0.25024800  1
  V  V42  1  0.21576800  0.21567200  0.25012500  1
  V  V43  1  0.28510300  0.28421100  0.75024800  1
  P  P44  1  0.54582150  0.22024850  0.84350100  1
  P  P45  1  0.61743000  0.29333500  0.34266800  1
  P  P46  1  0.54582150  0.77975150  0.34350100  1
  P  P47  1  0.66763850  0.00214250  0.62237300  1
  P  P48  1  0.66763850  0.99785750  0.12237300  1
  P  P49  1  0.61743000  0.70666500  0.84266800  1
  P  P50  1  0.66219100  0.57118700  0.65718900  1
  P  P51  1  0.83855550  0.07279350  0.84362000  1
  P  P52  1  0.66219100  0.42881300  0.15718900  1
  P  P53  1  0.83855550  0.92720650  0.34362000  1
  P  P54  1  0.88270800  0.79333800  0.15609200  1
  P  P55  1  0.83325100  0.49750800  0.87762000  1
  P  P56  1  0.83325100  0.50249200  0.37762000  1
  P  P57  1  0.95536900  0.72008900  0.65688700  1
  P  P58  1  0.88270800  0.20666200  0.65609200  1
  P  P59  1  0.95536900  0.27991100  0.15688700  1
  P  P60  1  0.04582150  0.72024850  0.84350100  1
  P  P61  1  0.11743000  0.79333500  0.34266800  1
  P  P62  1  0.04582150  0.27975150  0.34350100  1
  P  P63  1  0.16763850  0.50214250  0.62237300  1
  P  P64  1  0.16763850  0.49785750  0.12237300  1
  P  P65  1  0.11743000  0.20666500  0.84266800  1
  P  P66  1  0.16219100  0.07118700  0.65718900  1
  P  P67  1  0.33855550  0.57279350  0.84362000  1
  P  P68  1  0.16219100  0.92881300  0.15718900  1
  P  P69  1  0.33855550  0.42720650  0.34362000  1
  P  P70  1  0.38270800  0.29333800  0.15609200  1
  P  P71  1  0.33325100  0.99750800  0.87762000  1
  P  P72  1  0.33325100  0.00249200  0.37762000  1
  P  P73  1  0.45536900  0.22008900  0.65688700  1
  P  P74  1  0.38270800  0.70666200  0.65609200  1
  P  P75  1  0.45536900  0.77991100  0.15688700  1
  O  O76  1  0.50156850  0.27913850  0.74980300  1
  O  O77  1  0.50248800  0.24831200  0.56754200  1
  O  O78  1  0.54070150  0.21349750  0.34282700  1
  O  O79  1  0.62276200  0.37417500  0.06817800  1
  O  O80  1  0.62530700  0.29460600  0.84386400  1
  O  O81  1  0.56047350  0.06848950  0.82867900  1
  O  O82  1  0.59332850  0.07303350  0.15812300  1
  O  O83  1  0.56047350  0.93151050  0.32867900  1
  O  O84  1  0.50248800  0.75168800  0.06754200  1
  O  O85  1  0.50156850  0.72086150  0.24980300  1
  O  O86  1  0.54070150  0.78650250  0.84282700  1
  O  O87  1  0.66796800  0.15275600  0.66875600  1
  O  O88  1  0.59332850  0.92696650  0.65812300  1
  O  O89  1  0.68559150  0.19494450  0.32455900  1
  O  O90  1  0.66767400  0.01879200  0.51454600  1
  O  O91  1  0.66767400  0.98120800  0.01454600  1
  O  O92  1  0.75487450  0.13030550  0.82810100  1
  O  O93  1  0.66796800  0.84724400  0.16875600  1
  O  O94  1  0.74255650  0.07036850  0.15797100  1
  O  O95  1  0.62530700  0.70539400  0.34386400  1
  O  O96  1  0.61007950  0.60733250  0.75038700  1
  O  O97  1  0.62276200  0.62582500  0.56817800  1
  O  O98  1  0.68559150  0.80505550  0.82455900  1
  O  O99  1  0.62722600  0.62183400  0.93199300  1
  O  O100  1  0.74255650  0.92963150  0.65797100  1
  O  O101  1  0.75487450  0.86969450  0.32810100  1
  O  O102  1  0.66490800  0.58515600  0.15658400  1
  O  O103  1  0.83542400  0.08193900  0.34414600  1
  O  O104  1  0.61007950  0.39266750  0.25038700  1
  O  O105  1  0.62722600  0.37816600  0.43199300  1
  O  O106  1  0.87403300  0.12127300  0.56700000  1
  O  O107  1  0.88971550  0.11109950  0.74994000  1
  O  O108  1  0.66490800  0.41484400  0.65658400  1
  O  O109  1  0.83542400  0.91806100  0.84414600  1
  O  O110  1  0.74517050  0.62546550  0.67294400  1
  O  O111  1  0.75794100  0.57857800  0.33164100  1
  O  O112  1  0.81195900  0.69712600  0.17187200  1
  O  O113  1  0.87403300  0.87872700  0.06700000  1
  O  O114  1  0.87691100  0.87213900  0.43280900  1
  O  O115  1  0.88971550  0.88890050  0.24994000  1
  O  O116  1  0.87725500  0.79605500  0.65715800  1
  O  O117  1  0.75794100  0.42142200  0.83164100  1
  O  O118  1  0.83370150  0.64654450  0.84219900  1
  O  O119  1  0.74517050  0.37453450  0.17294400  1
  O  O120  1  0.82549300  0.48862300  0.98547700  1
  O  O121  1  0.82549300  0.51137700  0.48547700  1
  O  O122  1  0.81195900  0.30287400  0.67187200  1
  O  O123  1  0.90678150  0.57881750  0.34128600  1
  O  O124  1  0.83370150  0.35345550  0.34219900  1
  O  O125  1  0.95821850  0.71088450  0.15484300  1
  O  O126  1  0.99910900  0.75287900  0.93252100  1
  O  O127  1  0.93975300  0.56848600  0.67398200  1
  O  O128  1  0.90678150  0.42118250  0.84128600  1
  O  O129  1  0.93975300  0.43151400  0.17398200  1
  O  O130  1  0.87725500  0.20394500  0.15715800  1
  O  O131  1  0.87691100  0.12786100  0.93280900  1
  O  O132  1  0.95821850  0.28911550  0.65484300  1
  O  O133  1  0.99910900  0.24712100  0.43252100  1
  O  O134  1  0.00156850  0.77913850  0.74980300  1
  O  O135  1  0.00248800  0.74831200  0.56754200  1
  O  O136  1  0.04070150  0.71349750  0.34282700  1
  O  O137  1  0.12276200  0.87417500  0.06817800  1
  O  O138  1  0.12530700  0.79460600  0.84386400  1
  O  O139  1  0.06047350  0.56848950  0.82867900  1
  O  O140  1  0.09332850  0.57303350  0.15812300  1
  O  O141  1  0.06047350  0.43151050  0.32867900  1
  O  O142  1  0.00248800  0.25168800  0.06754200  1
  O  O143  1  0.00156850  0.22086150  0.24980300  1
  O  O144  1  0.04070150  0.28650250  0.84282700  1
  O  O145  1  0.16796800  0.65275600  0.66875600  1
  O  O146  1  0.09332850  0.42696650  0.65812300  1
  O  O147  1  0.18559150  0.69494450  0.32455900  1
  O  O148  1  0.16767400  0.51879200  0.51454600  1
  O  O149  1  0.16767400  0.48120800  0.01454600  1
  O  O150  1  0.25487450  0.63030550  0.82810100  1
  O  O151  1  0.16796800  0.34724400  0.16875600  1
  O  O152  1  0.24255650  0.57036850  0.15797100  1
  O  O153  1  0.12530700  0.20539400  0.34386400  1
  O  O154  1  0.11007950  0.10733250  0.75038700  1
  O  O155  1  0.12276200  0.12582500  0.56817800  1
  O  O156  1  0.18559150  0.30505550  0.82455900  1
  O  O157  1  0.12722600  0.12183400  0.93199300  1
  O  O158  1  0.24255650  0.42963150  0.65797100  1
  O  O159  1  0.25487450  0.36969450  0.32810100  1
  O  O160  1  0.16490800  0.08515600  0.15658400  1
  O  O161  1  0.33542400  0.58193900  0.34414600  1
  O  O162  1  0.11007950  0.89266750  0.25038700  1
  O  O163  1  0.12722600  0.87816600  0.43199300  1
  O  O164  1  0.37403300  0.62127300  0.56700000  1
  O  O165  1  0.38971550  0.61109950  0.74994000  1
  O  O166  1  0.16490800  0.91484400  0.65658400  1
  O  O167  1  0.33542400  0.41806100  0.84414600  1
  O  O168  1  0.24517050  0.12546550  0.67294400  1
  O  O169  1  0.25794100  0.07857800  0.33164100  1
  O  O170  1  0.31195900  0.19712600  0.17187200  1
  O  O171  1  0.37403300  0.37872700  0.06700000  1
  O  O172  1  0.37691100  0.37213900  0.43280900  1
  O  O173  1  0.38971550  0.38890050  0.24994000  1
  O  O174  1  0.37725500  0.29605500  0.65715800  1
  O  O175  1  0.25794100  0.92142200  0.83164100  1
  O  O176  1  0.33370150  0.14654450  0.84219900  1
  O  O177  1  0.24517050  0.87453450  0.17294400  1
  O  O178  1  0.32549300  0.98862300  0.98547700  1
  O  O179  1  0.32549300  0.01137700  0.48547700  1
  O  O180  1  0.31195900  0.80287400  0.67187200  1
  O  O181  1  0.40678150  0.07881750  0.34128600  1
  O  O182  1  0.33370150  0.85345550  0.34219900  1
  O  O183  1  0.45821850  0.21088450  0.15484300  1
  O  O184  1  0.49910900  0.25287900  0.93252100  1
  O  O185  1  0.43975300  0.06848600  0.67398200  1
  O  O186  1  0.40678150  0.92118250  0.84128600  1
  O  O187  1  0.43975300  0.93151400  0.17398200  1
  O  O188  1  0.37725500  0.70394500  0.15715800  1
  O  O189  1  0.37691100  0.62786100  0.93280900  1
  O  O190  1  0.45821850  0.78911550  0.65484300  1
  O  O191  1  0.49910900  0.74712100  0.43252100  1
