# generated using pymatgen
data_Sb16Cl4O21
_symmetry_space_group_name_H-M   'P 1'
_cell_length_a   8.33428400
_cell_length_b   10.01318468
_cell_length_c   10.47096962
_cell_angle_alpha   108.32898571
_cell_angle_beta   91.27334319
_cell_angle_gamma   102.50597927
_symmetry_Int_Tables_number   1
_chemical_formula_structural   Sb16Cl4O21
_chemical_formula_sum   'Sb16 Cl4 O21'
_cell_volume   805.96226209
_cell_formula_units_Z   1
loop_
 _symmetry_equiv_pos_site_id
 _symmetry_equiv_pos_as_xyz
  1  'x, y, z'
loop_
 _atom_site_type_symbol
 _atom_site_label
 _atom_site_symmetry_multiplicity
 _atom_site_fract_x
 _atom_site_fract_y
 _atom_site_fract_z
 _atom_site_occupancy
  Sb  Sb0  1  0.75687500  0.02680400  0.71311900  1
  Sb  Sb1  1  0.25625700  0.03101600  0.72085300  1
  Sb  Sb2  1  0.50206700  0.15833900  0.96624500  1
  Sb  Sb3  1  0.02632000  0.17521500  0.98503900  1
  Sb  Sb4  1  0.90822800  0.46739300  0.83834000  1
  Sb  Sb5  1  0.34115900  0.46139500  0.82819600  1
  Sb  Sb6  1  0.84730500  0.35450700  0.36846100  1
  Sb  Sb7  1  0.39312900  0.35660600  0.35740500  1
  Sb  Sb8  1  0.65243800  0.64415200  0.62810500  1
  Sb  Sb9  1  0.11195800  0.64837500  0.64343600  1
  Sb  Sb10  1  0.16044100  0.53973400  0.17214800  1
  Sb  Sb11  1  0.59174700  0.53061800  0.15506100  1
  Sb  Sb12  1  0.95863800  0.83538400  0.02435300  1
  Sb  Sb13  1  0.45906900  0.83171900  0.02378200  1
  Sb  Sb14  1  0.74956100  0.97349400  0.29189100  1
  Sb  Sb15  1  0.25157500  0.97990900  0.29078800  1
  Cl  Cl16  1  0.55035800  0.25374700  0.52059700  1
  Cl  Cl17  1  0.07032000  0.26178600  0.52190500  1
  Cl  Cl18  1  0.43615600  0.73928000  0.47714500  1
  Cl  Cl19  1  0.95087700  0.74731400  0.48014500  1
  O  O20  1  0.52690500  0.05948400  0.76790100  1
  O  O21  1  0.02610900  0.07710600  0.78567700  1
  O  O22  1  0.79215400  0.15079400  0.91621500  1
  O  O23  1  0.58525400  0.37351000  0.98081300  1
  O  O24  1  0.08724900  0.38888100  0.98278100  1
  O  O25  1  0.78874900  0.15437700  0.24246800  1
  O  O26  1  0.30442500  0.15831800  0.23253300  1
  O  O27  1  0.14793900  0.55514900  0.81088000  1
  O  O28  1  0.62161900  0.39631300  0.27508200  1
  O  O29  1  0.02107900  0.40083600  0.24768200  1
  O  O30  1  0.88037000  0.60233700  0.72210700  1
  O  O31  1  0.47604100  0.59337800  0.74519000  1
  O  O32  1  0.35269500  0.44402700  0.18791500  1
  O  O33  1  0.71635900  0.84265200  0.75699000  1
  O  O34  1  0.19886900  0.84509400  0.77139800  1
  O  O35  1  0.90159600  0.62179900  0.01201300  1
  O  O36  1  0.41233400  0.61281200  0.01793800  1
  O  O37  1  0.71127600  0.84336600  0.09275600  1
  O  O38  1  0.21094700  0.84390000  0.09365500  1
  O  O39  1  0.98878700  0.93898400  0.22636700  1
  O  O40  1  0.48771700  0.93190300  0.22582500  1
