# generated using pymatgen
data_Li6UO6
_symmetry_space_group_name_H-M   'P 1'
_cell_length_a   8.46847424
_cell_length_b   8.46847424
_cell_length_c   7.46510363
_cell_angle_alpha   90.00000000
_cell_angle_beta   90.00000000
_cell_angle_gamma   120.00000000
_symmetry_Int_Tables_number   1
_chemical_formula_structural   Li6UO6
_chemical_formula_sum   'Li18 U3 O18'
_cell_volume   463.63564149
_cell_formula_units_Z   3
loop_
 _symmetry_equiv_pos_site_id
 _symmetry_equiv_pos_as_xyz
  1  'x, y, z'
loop_
 _atom_site_type_symbol
 _atom_site_label
 _atom_site_symmetry_multiplicity
 _atom_site_fract_x
 _atom_site_fract_y
 _atom_site_fract_z
 _atom_site_occupancy
  Li  Li0  1  0.31239567  0.97906233  0.33333333  1
  Li  Li1  1  0.02093767  0.68760433  0.33333333  1
  Li  Li2  1  0.31239567  0.33333333  0.33333333  1
  Li  Li3  1  0.66666667  0.97906233  0.33333333  1
  Li  Li4  1  0.02093767  0.33333333  0.33333333  1
  Li  Li5  1  0.66666667  0.68760433  0.33333333  1
  Li  Li6  1  0.97906233  0.31239567  0.66666667  1
  Li  Li7  1  0.68760433  0.02093767  0.66666667  1
  Li  Li8  1  0.97906233  0.66666667  0.66666667  1
  Li  Li9  1  0.33333333  0.31239567  0.66666667  1
  Li  Li10  1  0.68760433  0.66666667  0.66666667  1
  Li  Li11  1  0.33333333  0.02093767  0.66666667  1
  Li  Li12  1  0.64572900  0.64572900  0.00000000  1
  Li  Li13  1  0.35427100  0.35427100  0.00000000  1
  Li  Li14  1  0.64572900  0.00000000  0.00000000  1
  Li  Li15  1  0.00000000  0.64572900  0.00000000  1
  Li  Li16  1  0.35427100  0.00000000  0.00000000  1
  Li  Li17  1  0.00000000  0.35427100  0.00000000  1
  U  U18  1  0.00000000  0.00000000  0.00000000  1
  U  U19  1  0.66666667  0.33333333  0.33333333  1
  U  U20  1  0.33333333  0.66666667  0.66666667  1
  O  O21  1  0.57935200  0.78967600  0.52100900  1
  O  O22  1  0.42064800  0.21032400  0.47899100  1
  O  O23  1  0.78967600  0.21032400  0.47899100  1
  O  O24  1  0.78967600  0.57935200  0.47899100  1
  O  O25  1  0.21032400  0.78967600  0.52100900  1
  O  O26  1  0.21032400  0.42064800  0.52100900  1
  O  O27  1  0.24601867  0.12300933  0.85434233  1
  O  O28  1  0.08731467  0.54365733  0.81232433  1
  O  O29  1  0.45634267  0.54365733  0.81232433  1
  O  O30  1  0.45634267  0.91268533  0.81232433  1
  O  O31  1  0.87699067  0.12300933  0.85434233  1
  O  O32  1  0.87699067  0.75398133  0.85434233  1
  O  O33  1  0.91268533  0.45634267  0.18767567  1
  O  O34  1  0.75398133  0.87699067  0.14565767  1
  O  O35  1  0.12300933  0.87699067  0.14565767  1
  O  O36  1  0.12300933  0.24601867  0.14565767  1
  O  O37  1  0.54365733  0.45634267  0.18767567  1
  O  O38  1  0.54365733  0.08731467  0.18767567  1
