# generated using pymatgen
data_La3ScBeS7
_symmetry_space_group_name_H-M   'P 1'
_cell_length_a   10.24003587
_cell_length_b   10.24003587
_cell_length_c   6.05843100
_cell_angle_alpha   90.00000000
_cell_angle_beta   90.00000000
_cell_angle_gamma   120.00000000
_symmetry_Int_Tables_number   1
_chemical_formula_structural   La3ScBeS7
_chemical_formula_sum   'La6 Sc2 Be2 S14'
_cell_volume   550.16600697
_cell_formula_units_Z   2
loop_
 _symmetry_equiv_pos_site_id
 _symmetry_equiv_pos_as_xyz
  1  'x, y, z'
loop_
 _atom_site_type_symbol
 _atom_site_label
 _atom_site_symmetry_multiplicity
 _atom_site_fract_x
 _atom_site_fract_y
 _atom_site_fract_z
 _atom_site_occupancy
  La  La0  1  0.39357400  0.25409500  0.74733200  1
  La  La1  1  0.60642600  0.74590500  0.24733200  1
  La  La2  1  0.74590500  0.13947900  0.74733200  1
  La  La3  1  0.86052100  0.60642600  0.74733200  1
  La  La4  1  0.13947900  0.39357400  0.24733200  1
  La  La5  1  0.25409500  0.86052100  0.24733200  1
  Sc  Sc6  1  0.00000000  0.00000000  0.51854000  1
  Sc  Sc7  1  0.00000000  0.00000000  0.01854000  1
  Be  Be8  1  0.66666667  0.33333333  0.15854400  1
  Be  Be9  1  0.33333333  0.66666667  0.65854400  1
  S  S10  1  0.66666667  0.33333333  0.50938400  1
  S  S11  1  0.33333333  0.66666667  0.00938400  1
  S  S12  1  0.52013300  0.11374400  0.02967200  1
  S  S13  1  0.47986700  0.88625600  0.52967200  1
  S  S14  1  0.88625600  0.40638900  0.02967200  1
  S  S15  1  0.59361100  0.47986700  0.02967200  1
  S  S16  1  0.40638900  0.52013300  0.52967200  1
  S  S17  1  0.11374400  0.59361100  0.52967200  1
  S  S18  1  0.23119600  0.15044400  0.27153300  1
  S  S19  1  0.76880400  0.84955600  0.77153300  1
  S  S20  1  0.84955600  0.08075200  0.27153300  1
  S  S21  1  0.91924800  0.76880400  0.27153300  1
  S  S22  1  0.08075200  0.23119600  0.77153300  1
  S  S23  1  0.15044400  0.91924800  0.77153300  1
