# generated using pymatgen
data_ReH8(I3N)2
_symmetry_space_group_name_H-M   'P 1'
_cell_length_a   7.90872800
_cell_length_b   7.90872800
_cell_length_c   12.17277900
_cell_angle_alpha   90.00000000
_cell_angle_beta   90.00000000
_cell_angle_gamma   90.00000000
_symmetry_Int_Tables_number   1
_chemical_formula_structural   ReH8(I3N)2
_chemical_formula_sum   'Re2 H16 I12 N4'
_cell_volume   761.38272013
_cell_formula_units_Z   2
loop_
 _symmetry_equiv_pos_site_id
 _symmetry_equiv_pos_as_xyz
  1  'x, y, z'
loop_
 _atom_site_type_symbol
 _atom_site_label
 _atom_site_symmetry_multiplicity
 _atom_site_fract_x
 _atom_site_fract_y
 _atom_site_fract_z
 _atom_site_occupancy
  Re  Re0  1  0.00000000  0.00000000  0.50000000  1
  Re  Re1  1  0.50000000  0.50000000  0.00000000  1
  H  H2  1  0.00135000  0.60669400  0.29924200  1
  H  H3  1  0.00135000  0.60669400  0.70075800  1
  H  H4  1  0.10669400  0.50135000  0.20075800  1
  H  H5  1  0.10669400  0.50135000  0.79924200  1
  H  H6  1  0.39330600  0.00135000  0.29924200  1
  H  H7  1  0.39330600  0.00135000  0.70075800  1
  H  H8  1  0.49865000  0.10669400  0.20075800  1
  H  H9  1  0.49865000  0.10669400  0.79924200  1
  H  H10  1  0.50135000  0.89330600  0.20075800  1
  H  H11  1  0.50135000  0.89330600  0.79924200  1
  H  H12  1  0.60669400  0.99865000  0.29924200  1
  H  H13  1  0.60669400  0.99865000  0.70075800  1
  H  H14  1  0.89330600  0.49865000  0.20075800  1
  H  H15  1  0.89330600  0.49865000  0.79924200  1
  H  H16  1  0.99865000  0.39330600  0.29924200  1
  H  H17  1  0.99865000  0.39330600  0.70075800  1
  I  I18  1  0.00000000  0.00000000  0.27298900  1
  I  I19  1  0.00000000  0.00000000  0.72701100  1
  I  I20  1  0.19642100  0.71352700  0.50000000  1
  I  I21  1  0.21352700  0.69642100  0.00000000  1
  I  I22  1  0.28647300  0.19642100  0.50000000  1
  I  I23  1  0.30357900  0.21352700  0.00000000  1
  I  I24  1  0.50000000  0.50000000  0.22701100  1
  I  I25  1  0.50000000  0.50000000  0.77298900  1
  I  I26  1  0.69642100  0.78647300  0.00000000  1
  I  I27  1  0.71352700  0.80357900  0.50000000  1
  I  I28  1  0.78647300  0.30357900  0.00000000  1
  I  I29  1  0.80357900  0.28647300  0.50000000  1
  N  N30  1  0.00000000  0.50000000  0.25000000  1
  N  N31  1  0.00000000  0.50000000  0.75000000  1
  N  N32  1  0.50000000  0.00000000  0.25000000  1
  N  N33  1  0.50000000  0.00000000  0.75000000  1
