# generated using pymatgen
data_LiVPHO5
_symmetry_space_group_name_H-M   'P 1'
_cell_length_a   5.44235507
_cell_length_b   6.21068393
_cell_length_c   6.58042477
_cell_angle_alpha   104.44687297
_cell_angle_beta   103.53139506
_cell_angle_gamma   103.88067348
_symmetry_Int_Tables_number   1
_chemical_formula_structural   LiVPHO5
_chemical_formula_sum   'Li2 V2 P2 H2 O10'
_cell_volume   198.62447628
_cell_formula_units_Z   2
loop_
 _symmetry_equiv_pos_site_id
 _symmetry_equiv_pos_as_xyz
  1  'x, y, z'
loop_
 _atom_site_type_symbol
 _atom_site_label
 _atom_site_symmetry_multiplicity
 _atom_site_fract_x
 _atom_site_fract_y
 _atom_site_fract_z
 _atom_site_occupancy
  Li  Li0  1  0.00000000  0.00000000  0.50000000  1
  Li  Li1  1  0.00000000  0.00000000  0.00000000  1
  V  V2  1  0.75900000  0.38356300  0.27254100  1
  V  V3  1  0.24100000  0.61643700  0.72745900  1
  P  P4  1  0.34620200  0.55148750  0.23034450  1
  P  P5  1  0.65379800  0.44851250  0.76965550  1
  H  H6  1  0.66594700  0.94593500  0.16598450  1
  H  H7  1  0.33405300  0.05406500  0.83401550  1
  O  O8  1  0.64916100  0.67879700  0.35920050  1
  O  O9  1  0.35083900  0.32120300  0.64079950  1
  O  O10  1  0.25628800  0.65063600  0.04401300  1
  O  O11  1  0.74371200  0.34936400  0.95598700  1
  O  O12  1  0.82369400  0.08422000  0.24315650  1
  O  O13  1  0.17630600  0.91578000  0.75684350  1
  O  O14  1  0.83194200  0.41405750  0.61473600  1
  O  O15  1  0.16805800  0.58594250  0.38526400  1
  O  O16  1  0.66617300  0.70996950  0.84723000  1
  O  O17  1  0.33382700  0.29003050  0.15277000  1
