# generated using pymatgen
data_TiO2
_symmetry_space_group_name_H-M   'P 1'
_cell_length_a   3.01680600
_cell_length_b   9.59644600
_cell_length_c   11.04782100
_cell_angle_alpha   90.00000000
_cell_angle_beta   90.00000000
_cell_angle_gamma   90.00000000
_symmetry_Int_Tables_number   1
_chemical_formula_structural   TiO2
_chemical_formula_sum   'Ti8 O16'
_cell_volume   319.84122199
_cell_formula_units_Z   8
loop_
 _symmetry_equiv_pos_site_id
 _symmetry_equiv_pos_as_xyz
  1  'x, y, z'
loop_
 _atom_site_type_symbol
 _atom_site_label
 _atom_site_symmetry_multiplicity
 _atom_site_fract_x
 _atom_site_fract_y
 _atom_site_fract_z
 _atom_site_occupancy
  Ti  Ti0  1  0.75000000  0.01751000  0.36833200  1
  Ti  Ti1  1  0.25000000  0.23613000  0.15544300  1
  Ti  Ti2  1  0.75000000  0.26387000  0.65544300  1
  Ti  Ti3  1  0.25000000  0.48249000  0.86833200  1
  Ti  Ti4  1  0.75000000  0.51751000  0.13166800  1
  Ti  Ti5  1  0.25000000  0.73613000  0.34455700  1
  Ti  Ti6  1  0.75000000  0.76387000  0.84455700  1
  Ti  Ti7  1  0.25000000  0.98249000  0.63166800  1
  O  O8  1  0.75000000  0.09526600  0.54435200  1
  O  O9  1  0.25000000  0.12497300  0.31105100  1
  O  O10  1  0.25000000  0.13319600  0.73121000  1
  O  O11  1  0.75000000  0.15088200  0.09415400  1
  O  O12  1  0.25000000  0.34911800  0.59415400  1
  O  O13  1  0.75000000  0.36680400  0.23121000  1
  O  O14  1  0.75000000  0.37502700  0.81105100  1
  O  O15  1  0.25000000  0.40473400  0.04435200  1
  O  O16  1  0.75000000  0.59526600  0.95564800  1
  O  O17  1  0.25000000  0.62497300  0.18894900  1
  O  O18  1  0.25000000  0.63319600  0.76879000  1
  O  O19  1  0.75000000  0.65088200  0.40584600  1
  O  O20  1  0.25000000  0.84911800  0.90584600  1
  O  O21  1  0.75000000  0.86680400  0.26879000  1
  O  O22  1  0.75000000  0.87502700  0.68894900  1
  O  O23  1  0.25000000  0.90473400  0.45564800  1
