# generated using pymatgen
data_Cs2HgF4
_symmetry_space_group_name_H-M   'P 1'
_cell_length_a   4.75323200
_cell_length_b   4.75323200
_cell_length_c   14.66013800
_cell_angle_alpha   90.00000000
_cell_angle_beta   90.00000000
_cell_angle_gamma   90.00000000
_symmetry_Int_Tables_number   1
_chemical_formula_structural   Cs2HgF4
_chemical_formula_sum   'Cs4 Hg2 F8'
_cell_volume   331.21964164
_cell_formula_units_Z   2
loop_
 _symmetry_equiv_pos_site_id
 _symmetry_equiv_pos_as_xyz
  1  'x, y, z'
loop_
 _atom_site_type_symbol
 _atom_site_label
 _atom_site_symmetry_multiplicity
 _atom_site_fract_x
 _atom_site_fract_y
 _atom_site_fract_z
 _atom_site_occupancy
  Cs  Cs0  1  0.00000000  0.00000000  0.35707600  1
  Cs  Cs1  1  0.50000000  0.50000000  0.14292400  1
  Cs  Cs2  1  0.50000000  0.50000000  0.85707600  1
  Cs  Cs3  1  0.00000000  0.00000000  0.64292400  1
  Hg  Hg4  1  0.00000000  0.00000000  0.00000000  1
  Hg  Hg5  1  0.50000000  0.50000000  0.50000000  1
  F  F6  1  0.00000000  0.00000000  0.15512800  1
  F  F7  1  0.50000000  0.50000000  0.34487200  1
  F  F8  1  0.50000000  0.00000000  0.00000000  1
  F  F9  1  0.00000000  0.50000000  0.00000000  1
  F  F10  1  0.50000000  0.50000000  0.65512800  1
  F  F11  1  0.00000000  0.00000000  0.84487200  1
  F  F12  1  0.00000000  0.50000000  0.50000000  1
  F  F13  1  0.50000000  0.00000000  0.50000000  1
