# generated using pymatgen
data_Na3MnO3
_symmetry_space_group_name_H-M   'P 1'
_cell_length_a   5.90946931
_cell_length_b   12.47696300
_cell_length_c   6.35896076
_cell_angle_alpha   90.00000000
_cell_angle_beta   121.57172879
_cell_angle_gamma   90.00000000
_symmetry_Int_Tables_number   1
_chemical_formula_structural   Na3MnO3
_chemical_formula_sum   'Na12 Mn4 O12'
_cell_volume   399.46216830
_cell_formula_units_Z   4
loop_
 _symmetry_equiv_pos_site_id
 _symmetry_equiv_pos_as_xyz
  1  'x, y, z'
loop_
 _atom_site_type_symbol
 _atom_site_label
 _atom_site_symmetry_multiplicity
 _atom_site_fract_x
 _atom_site_fract_y
 _atom_site_fract_z
 _atom_site_occupancy
  Na  Na0  1  0.56158400  0.27863600  0.36080050  1
  Na  Na1  1  0.53347200  0.01634800  0.25401250  1
  Na  Na2  1  0.46652800  0.51634800  0.24598750  1
  Na  Na3  1  0.43841600  0.77863600  0.13919950  1
  Na  Na4  1  0.06202000  0.90053200  0.21066950  1
  Na  Na5  1  0.93798000  0.40053200  0.28933050  1
  Na  Na6  1  0.06202000  0.59946800  0.71066950  1
  Na  Na7  1  0.93798000  0.09946800  0.78933050  1
  Na  Na8  1  0.56158400  0.22136400  0.86080050  1
  Na  Na9  1  0.53347200  0.48365200  0.75401250  1
  Na  Na10  1  0.46652800  0.98365200  0.74598750  1
  Na  Na11  1  0.43841600  0.72136400  0.63919950  1
  Mn  Mn12  1  0.09057600  0.15929700  0.32797550  1
  Mn  Mn13  1  0.90942400  0.65929700  0.17202450  1
  Mn  Mn14  1  0.09057600  0.34070300  0.82797550  1
  Mn  Mn15  1  0.90942400  0.84070300  0.67202450  1
  O  O16  1  0.45727600  0.13058000  0.50518250  1
  O  O17  1  0.19223300  0.56591000  0.38582750  1
  O  O18  1  0.95535000  0.76845000  0.43125250  1
  O  O19  1  0.45727600  0.36942000  0.00518250  1
  O  O20  1  0.04465000  0.26845000  0.06874750  1
  O  O21  1  0.19223300  0.93409000  0.88582750  1
  O  O22  1  0.80776700  0.06591000  0.11417250  1
  O  O23  1  0.95535000  0.73155000  0.93125250  1
  O  O24  1  0.54272400  0.63058000  0.99481750  1
  O  O25  1  0.04465000  0.23155000  0.56874750  1
  O  O26  1  0.80776700  0.43409000  0.61417250  1
  O  O27  1  0.54272400  0.86942000  0.49481750  1
