# generated using pymatgen
data_Mn12O7F17
_symmetry_space_group_name_H-M   'P 1'
_cell_length_a   4.72988600
_cell_length_b   5.79678781
_cell_length_c   16.02109148
_cell_angle_alpha   89.36405501
_cell_angle_beta   89.63059359
_cell_angle_gamma   87.62228102
_symmetry_Int_Tables_number   1
_chemical_formula_structural   Mn12O7F17
_chemical_formula_sum   'Mn12 O7 F17'
_cell_volume   438.85551031
_cell_formula_units_Z   1
loop_
 _symmetry_equiv_pos_site_id
 _symmetry_equiv_pos_as_xyz
  1  'x, y, z'
loop_
 _atom_site_type_symbol
 _atom_site_label
 _atom_site_symmetry_multiplicity
 _atom_site_fract_x
 _atom_site_fract_y
 _atom_site_fract_z
 _atom_site_occupancy
  Mn  Mn0  1  0.99926800  0.15239500  0.41573000  1
  Mn  Mn1  1  0.02688300  0.83740000  0.23966900  1
  Mn  Mn2  1  0.00391300  0.86009800  0.91616900  1
  Mn  Mn3  1  0.01617200  0.15493400  0.07689800  1
  Mn  Mn4  1  0.03195100  0.85397600  0.57740900  1
  Mn  Mn5  1  0.00792200  0.16544000  0.73895600  1
  Mn  Mn6  1  0.49352700  0.33030800  0.59280900  1
  Mn  Mn7  1  0.49813300  0.32631800  0.92921800  1
  Mn  Mn8  1  0.53393900  0.33777100  0.26012300  1
  Mn  Mn9  1  0.49115000  0.64988800  0.08338400  1
  Mn  Mn10  1  0.50848000  0.65661200  0.41990500  1
  Mn  Mn11  1  0.52527300  0.64199700  0.75068600  1
  O  O12  1  0.22254800  0.11880600  0.63698200  1
  O  O13  1  0.20985800  0.11954100  0.97052100  1
  O  O14  1  0.23416400  0.88769800  0.12840300  1
  O  O15  1  0.22326700  0.88773000  0.46510700  1
  O  O16  1  0.71072000  0.38292500  0.03252400  1
  O  O17  1  0.73568900  0.38909500  0.37171000  1
  O  O18  1  0.71768400  0.36762900  0.69312500  1
  F  F19  1  0.21694900  0.12132200  0.30650200  1
  F  F20  1  0.23703400  0.89500900  0.80032600  1
  F  F21  1  0.26430400  0.39888000  0.14931200  1
  F  F22  1  0.27667300  0.61624400  0.31294400  1
  F  F23  1  0.26489900  0.38725200  0.48430500  1
  F  F24  1  0.27439500  0.38506400  0.81723200  1
  F  F25  1  0.25604000  0.61155600  0.64756200  1
  F  F26  1  0.25431400  0.61695900  0.97648000  1
  F  F27  1  0.72233800  0.61995500  0.19348000  1
  F  F28  1  0.71603100  0.61352700  0.53401600  1
  F  F29  1  0.73365200  0.61222300  0.86754100  1
  F  F30  1  0.75805200  0.89142500  0.35037200  1
  F  F31  1  0.78810000  0.12263800  0.18453700  1
  F  F32  1  0.75920600  0.11434900  0.51899300  1
  F  F33  1  0.73989100  0.88170600  0.02235000  1
  F  F34  1  0.77004200  0.11776000  0.84826900  1
  F  F35  1  0.77753700  0.87356800  0.68645200  1
