# generated using pymatgen
data_Mn2OF3
_symmetry_space_group_name_H-M   'P 1'
_cell_length_a   5.70960000
_cell_length_b   4.76908800
_cell_length_c   11.04172549
_cell_angle_alpha   90.00000000
_cell_angle_beta   97.17857127
_cell_angle_gamma   90.00000000
_symmetry_Int_Tables_number   1
_chemical_formula_structural   Mn2OF3
_chemical_formula_sum   'Mn8 O4 F12'
_cell_volume   298.30486715
_cell_formula_units_Z   4
loop_
 _symmetry_equiv_pos_site_id
 _symmetry_equiv_pos_as_xyz
  1  'x, y, z'
loop_
 _atom_site_type_symbol
 _atom_site_label
 _atom_site_symmetry_multiplicity
 _atom_site_fract_x
 _atom_site_fract_y
 _atom_site_fract_z
 _atom_site_occupancy
  Mn  Mn0  1  0.50000000  0.00000000  0.50000000  1
  Mn  Mn1  1  0.00000000  0.00000000  0.00000000  1
  Mn  Mn2  1  0.73977000  0.96766200  0.23326800  1
  Mn  Mn3  1  0.26023000  0.03233800  0.76673200  1
  Mn  Mn4  1  0.26023000  0.46766200  0.26673200  1
  Mn  Mn5  1  0.50000000  0.50000000  0.00000000  1
  Mn  Mn6  1  0.73977000  0.53233800  0.73326800  1
  Mn  Mn7  1  0.00000000  0.50000000  0.50000000  1
  O  O8  1  0.73599700  0.70334100  0.56186000  1
  O  O9  1  0.73599700  0.79665900  0.06186000  1
  O  O10  1  0.26400300  0.20334100  0.93814000  1
  O  O11  1  0.26400300  0.29665900  0.43814000  1
  F  F12  1  0.23669100  0.69936100  0.08674000  1
  F  F13  1  0.46448100  0.68445000  0.82605000  1
  F  F14  1  0.97412200  0.69289300  0.33142700  1
  F  F15  1  0.46448100  0.81555000  0.32605000  1
  F  F16  1  0.23669100  0.80063900  0.58674000  1
  F  F17  1  0.97412200  0.80710700  0.83142700  1
  F  F18  1  0.53551900  0.18445000  0.67395000  1
  F  F19  1  0.76330900  0.19936100  0.41326000  1
  F  F20  1  0.02587800  0.19289300  0.16857300  1
  F  F21  1  0.02587800  0.30710700  0.66857300  1
  F  F22  1  0.53551900  0.31555000  0.17395000  1
  F  F23  1  0.76330900  0.30063900  0.91326000  1
