# generated using pymatgen
data_SrCaI4
_symmetry_space_group_name_H-M   'P 1'
_cell_length_a   9.66794800
_cell_length_b   10.77197400
_cell_length_c   10.77234000
_cell_angle_alpha   90.00000000
_cell_angle_beta   90.00000000
_cell_angle_gamma   90.00000000
_symmetry_Int_Tables_number   1
_chemical_formula_structural   SrCaI4
_chemical_formula_sum   'Sr4 Ca4 I16'
_cell_volume   1121.86256030
_cell_formula_units_Z   4
loop_
 _symmetry_equiv_pos_site_id
 _symmetry_equiv_pos_as_xyz
  1  'x, y, z'
loop_
 _atom_site_type_symbol
 _atom_site_label
 _atom_site_symmetry_multiplicity
 _atom_site_fract_x
 _atom_site_fract_y
 _atom_site_fract_z
 _atom_site_occupancy
  Sr  Sr0  1  0.25000000  0.25000000  0.25000000  1
  Sr  Sr1  1  0.75000000  0.25000000  0.25000000  1
  Sr  Sr2  1  0.75000000  0.75000000  0.75000000  1
  Sr  Sr3  1  0.25000000  0.75000000  0.75000000  1
  Ca  Ca4  1  0.50000000  0.25000000  0.76525400  1
  Ca  Ca5  1  0.00000000  0.25000000  0.73474600  1
  Ca  Ca6  1  0.00000000  0.75000000  0.26525400  1
  Ca  Ca7  1  0.50000000  0.75000000  0.23474600  1
  I  I8  1  0.50000000  0.04484200  0.22746900  1
  I  I9  1  0.26486800  0.75000000  0.44032700  1
  I  I10  1  0.26486800  0.25000000  0.55967300  1
  I  I11  1  0.50000000  0.45515800  0.22746900  1
  I  I12  1  0.00000000  0.04484200  0.27253100  1
  I  I13  1  0.23513200  0.75000000  0.05967300  1
  I  I14  1  0.23513200  0.25000000  0.94032700  1
  I  I15  1  0.00000000  0.45515800  0.27253100  1
  I  I16  1  0.00000000  0.54484200  0.72746900  1
  I  I17  1  0.76486800  0.25000000  0.94032700  1
  I  I18  1  0.76486800  0.75000000  0.05967300  1
  I  I19  1  0.00000000  0.95515800  0.72746900  1
  I  I20  1  0.50000000  0.54484200  0.77253100  1
  I  I21  1  0.73513200  0.25000000  0.55967300  1
  I  I22  1  0.73513200  0.75000000  0.44032700  1
  I  I23  1  0.50000000  0.95515800  0.77253100  1
