# generated using pymatgen
data_Mg(PtO2)3
_symmetry_space_group_name_H-M   'P 1'
_cell_length_a   7.17556800
_cell_length_b   10.02261200
_cell_length_c   3.23815300
_cell_angle_alpha   90.00000000
_cell_angle_beta   90.00000000
_cell_angle_gamma   90.00000000
_symmetry_Int_Tables_number   1
_chemical_formula_structural   Mg(PtO2)3
_chemical_formula_sum   'Mg2 Pt6 O12'
_cell_volume   232.88127355
_cell_formula_units_Z   2
loop_
 _symmetry_equiv_pos_site_id
 _symmetry_equiv_pos_as_xyz
  1  'x, y, z'
loop_
 _atom_site_type_symbol
 _atom_site_label
 _atom_site_symmetry_multiplicity
 _atom_site_fract_x
 _atom_site_fract_y
 _atom_site_fract_z
 _atom_site_occupancy
  Mg  Mg0  1  0.50000000  0.00000000  0.00000000  1
  Mg  Mg1  1  0.00000000  0.50000000  0.00000000  1
  Pt  Pt2  1  0.25000000  0.75000000  0.50000000  1
  Pt  Pt3  1  0.00000000  0.00000000  0.00000000  1
  Pt  Pt4  1  0.25000000  0.25000000  0.50000000  1
  Pt  Pt5  1  0.75000000  0.25000000  0.50000000  1
  Pt  Pt6  1  0.50000000  0.50000000  0.00000000  1
  Pt  Pt7  1  0.75000000  0.75000000  0.50000000  1
  O  O8  1  0.21305450  0.12687750  0.00000000  1
  O  O9  1  0.78694550  0.87312250  0.00000000  1
  O  O10  1  0.21305450  0.87312250  0.00000000  1
  O  O11  1  0.78694550  0.12687750  0.00000000  1
  O  O12  1  0.50000000  0.85295500  0.50000000  1
  O  O13  1  0.50000000  0.14704500  0.50000000  1
  O  O14  1  0.71305450  0.62687750  0.00000000  1
  O  O15  1  0.28694550  0.37312250  0.00000000  1
  O  O16  1  0.71305450  0.37312250  0.00000000  1
  O  O17  1  0.28694550  0.62687750  0.00000000  1
  O  O18  1  0.00000000  0.35295500  0.50000000  1
  O  O19  1  0.00000000  0.64704500  0.50000000  1
