# generated using pymatgen
data_Ca2SnS4
_symmetry_space_group_name_H-M   'P 1'
_cell_length_a   5.94579800
_cell_length_b   5.94579800
_cell_length_c   12.50557600
_cell_angle_alpha   90.00000000
_cell_angle_beta   90.00000000
_cell_angle_gamma   90.00000000
_symmetry_Int_Tables_number   1
_chemical_formula_structural   Ca2SnS4
_chemical_formula_sum   'Ca4 Sn2 S8'
_cell_volume   442.10354883
_cell_formula_units_Z   2
loop_
 _symmetry_equiv_pos_site_id
 _symmetry_equiv_pos_as_xyz
  1  'x, y, z'
loop_
 _atom_site_type_symbol
 _atom_site_label
 _atom_site_symmetry_multiplicity
 _atom_site_fract_x
 _atom_site_fract_y
 _atom_site_fract_z
 _atom_site_occupancy
  Ca  Ca0  1  0.50000000  0.00000000  0.25000000  1
  Ca  Ca1  1  0.50000000  0.50000000  0.00000000  1
  Ca  Ca2  1  0.00000000  0.50000000  0.75000000  1
  Ca  Ca3  1  0.00000000  0.00000000  0.50000000  1
  Sn  Sn4  1  0.00000000  0.50000000  0.25000000  1
  Sn  Sn5  1  0.50000000  0.00000000  0.75000000  1
  S  S6  1  0.78397100  0.73632300  0.13021700  1
  S  S7  1  0.21602900  0.26367700  0.13021700  1
  S  S8  1  0.23632300  0.71602900  0.36978300  1
  S  S9  1  0.76367700  0.28397100  0.36978300  1
  S  S10  1  0.28397100  0.23632300  0.63021700  1
  S  S11  1  0.71602900  0.76367700  0.63021700  1
  S  S12  1  0.73632300  0.21602900  0.86978300  1
  S  S13  1  0.26367700  0.78397100  0.86978300  1
