# generated using pymatgen
data_AlBO3
_symmetry_space_group_name_H-M   'P 1'
_cell_length_a   4.50547778
_cell_length_b   4.50547778
_cell_length_c   13.90291586
_cell_angle_alpha   90.00000000
_cell_angle_beta   90.00000000
_cell_angle_gamma   120.00000000
_symmetry_Int_Tables_number   1
_chemical_formula_structural   AlBO3
_chemical_formula_sum   'Al6 B6 O18'
_cell_volume   244.40958368
_cell_formula_units_Z   6
loop_
 _symmetry_equiv_pos_site_id
 _symmetry_equiv_pos_as_xyz
  1  'x, y, z'
loop_
 _atom_site_type_symbol
 _atom_site_label
 _atom_site_symmetry_multiplicity
 _atom_site_fract_x
 _atom_site_fract_y
 _atom_site_fract_z
 _atom_site_occupancy
  Al  Al0  1  0.33333333  0.66666667  0.16666667  1
  Al  Al1  1  0.00000000  0.00000000  0.00000000  1
  Al  Al2  1  1.00000000  0.00000000  0.50000000  1
  Al  Al3  1  0.66666667  0.33333333  0.33333333  1
  Al  Al4  1  0.66666667  0.33333333  0.83333333  1
  Al  Al5  1  0.33333333  0.66666667  0.66666667  1
  B  B6  1  0.66666667  0.33333333  0.08333333  1
  B  B7  1  0.00000000  0.00000000  0.25000000  1
  B  B8  1  0.33333333  0.66666667  0.41666667  1
  B  B9  1  0.66666667  0.33333333  0.58333333  1
  B  B10  1  0.00000000  0.00000000  0.75000000  1
  B  B11  1  0.33333333  0.66666667  0.91666667  1
  O  O12  1  0.66666667  0.02542933  0.08333333  1
  O  O13  1  0.35876267  0.33333333  0.08333333  1
  O  O14  1  0.69209600  0.69209600  0.25000000  1
  O  O15  1  0.00000000  0.30790400  0.25000000  1
  O  O16  1  0.30790400  0.00000000  0.25000000  1
  O  O17  1  0.97457067  0.64123733  0.08333333  1
  O  O18  1  0.33333333  0.35876267  0.41666667  1
  O  O19  1  0.02542933  0.66666667  0.41666667  1
  O  O20  1  0.35876267  0.02542933  0.58333333  1
  O  O21  1  0.66666667  0.64123733  0.58333333  1
  O  O22  1  0.97457067  0.33333333  0.58333333  1
  O  O23  1  0.64123733  0.97457067  0.41666667  1
  O  O24  1  0.00000000  0.69209600  0.75000000  1
  O  O25  1  0.69209600  0.00000000  0.75000000  1
  O  O26  1  0.02542933  0.35876267  0.91666667  1
  O  O27  1  0.33333333  0.97457067  0.91666667  1
  O  O28  1  0.64123733  0.66666667  0.91666667  1
  O  O29  1  0.30790400  0.30790400  0.75000000  1
