# generated using pymatgen
data_Li2Fe3O3F5
_symmetry_space_group_name_H-M   'P 1'
_cell_length_a   10.42174400
_cell_length_b   5.94305600
_cell_length_c   6.10520301
_cell_angle_alpha   90.00000000
_cell_angle_beta   125.63263670
_cell_angle_gamma   90.00000000
_symmetry_Int_Tables_number   1
_chemical_formula_structural   Li2Fe3O3F5
_chemical_formula_sum   'Li4 Fe6 O6 F10'
_cell_volume   307.33886718
_cell_formula_units_Z   2
loop_
 _symmetry_equiv_pos_site_id
 _symmetry_equiv_pos_as_xyz
  1  'x, y, z'
loop_
 _atom_site_type_symbol
 _atom_site_label
 _atom_site_symmetry_multiplicity
 _atom_site_fract_x
 _atom_site_fract_y
 _atom_site_fract_z
 _atom_site_occupancy
  Li  Li0  1  0.37746500  0.74244400  0.37232000  1
  Li  Li1  1  0.37746500  0.25755600  0.37232000  1
  Li  Li2  1  0.87746500  0.24244400  0.37232000  1
  Li  Li3  1  0.87746500  0.75755600  0.37232000  1
  Fe  Fe4  1  0.63744300  0.00000000  0.87503800  1
  Fe  Fe5  1  0.75051300  0.50000000  0.77218600  1
  Fe  Fe6  1  0.61795300  0.00000000  0.37447900  1
  Fe  Fe7  1  0.13744300  0.50000000  0.87503800  1
  Fe  Fe8  1  0.25051300  0.00000000  0.77218600  1
  Fe  Fe9  1  0.11795300  0.50000000  0.37447900  1
  O  O10  1  0.62411100  0.77051800  0.62896300  1
  O  O11  1  0.38820300  0.00000000  0.14355800  1
  O  O12  1  0.62411100  0.22948200  0.62896300  1
  O  O13  1  0.12411100  0.27051800  0.62896300  1
  O  O14  1  0.88820300  0.50000000  0.14355800  1
  O  O15  1  0.12411100  0.72948200  0.62896300  1
  F  F16  1  0.38253700  0.00000000  0.63316800  1
  F  F17  1  0.13090750  0.71810250  0.12333900  1
  F  F18  1  0.36124100  0.50000000  0.13630100  1
  F  F19  1  0.34701700  0.50000000  0.56598500  1
  F  F20  1  0.13090750  0.28189750  0.12333900  1
  F  F21  1  0.88253700  0.50000000  0.63316800  1
  F  F22  1  0.63090750  0.21810250  0.12333900  1
  F  F23  1  0.86124100  0.00000000  0.13630100  1
  F  F24  1  0.84701700  0.00000000  0.56598500  1
  F  F25  1  0.63090750  0.78189750  0.12333900  1
