# generated using pymatgen
data_Na3SbO3
_symmetry_space_group_name_H-M   'P 1'
_cell_length_a   9.62816600
_cell_length_b   9.62816600
_cell_length_c   9.62816600
_cell_angle_alpha   90.00000000
_cell_angle_beta   90.00000000
_cell_angle_gamma   90.00000000
_symmetry_Int_Tables_number   1
_chemical_formula_structural   Na3SbO3
_chemical_formula_sum   'Na24 Sb8 O24'
_cell_volume   892.54620574
_cell_formula_units_Z   8
loop_
 _symmetry_equiv_pos_site_id
 _symmetry_equiv_pos_as_xyz
  1  'x, y, z'
loop_
 _atom_site_type_symbol
 _atom_site_label
 _atom_site_symmetry_multiplicity
 _atom_site_fract_x
 _atom_site_fract_y
 _atom_site_fract_z
 _atom_site_occupancy
  Na  Na0  1  0.60324000  0.12207200  0.12207200  1
  Na  Na1  1  0.12207200  0.12207200  0.60324000  1
  Na  Na2  1  0.12207200  0.60324000  0.12207200  1
  Na  Na3  1  0.39676000  0.87792800  0.12207200  1
  Na  Na4  1  0.39676000  0.12207200  0.87792800  1
  Na  Na5  1  0.10324000  0.37792800  0.37792800  1
  Na  Na6  1  0.37792800  0.37792800  0.10324000  1
  Na  Na7  1  0.87792800  0.12207200  0.39676000  1
  Na  Na8  1  0.12207200  0.39676000  0.87792800  1
  Na  Na9  1  0.87792800  0.39676000  0.12207200  1
  Na  Na10  1  0.37792800  0.10324000  0.37792800  1
  Na  Na11  1  0.12207200  0.87792800  0.39676000  1
  Na  Na12  1  0.10324000  0.62207200  0.62207200  1
  Na  Na13  1  0.62207200  0.62207200  0.10324000  1
  Na  Na14  1  0.62207200  0.10324000  0.62207200  1
  Na  Na15  1  0.89676000  0.37792800  0.62207200  1
  Na  Na16  1  0.89676000  0.62207200  0.37792800  1
  Na  Na17  1  0.60324000  0.87792800  0.87792800  1
  Na  Na18  1  0.87792800  0.87792800  0.60324000  1
  Na  Na19  1  0.37792800  0.62207200  0.89676000  1
  Na  Na20  1  0.62207200  0.89676000  0.37792800  1
  Na  Na21  1  0.37792800  0.89676000  0.62207200  1
  Na  Na22  1  0.87792800  0.60324000  0.87792800  1
  Na  Na23  1  0.62207200  0.37792800  0.89676000  1
  Sb  Sb24  1  0.35485400  0.64514600  0.35485400  1
  Sb  Sb25  1  0.35485400  0.35485400  0.64514600  1
  Sb  Sb26  1  0.14514600  0.14514600  0.14514600  1
  Sb  Sb27  1  0.64514600  0.35485400  0.35485400  1
  Sb  Sb28  1  0.85485400  0.14514600  0.85485400  1
  Sb  Sb29  1  0.85485400  0.85485400  0.14514600  1
  Sb  Sb30  1  0.64514600  0.64514600  0.64514600  1
  Sb  Sb31  1  0.14514600  0.85485400  0.85485400  1
  O  O32  1  0.12975650  0.35040450  0.12975650  1
  O  O33  1  0.35040450  0.12975650  0.12975650  1
  O  O34  1  0.12975650  0.12975650  0.35040450  1
  O  O35  1  0.12975650  0.87024350  0.64959550  1
  O  O36  1  0.87024350  0.64959550  0.12975650  1
  O  O37  1  0.12975650  0.64959550  0.87024350  1
  O  O38  1  0.37024350  0.85040450  0.37024350  1
  O  O39  1  0.87024350  0.12975650  0.64959550  1
  O  O40  1  0.64959550  0.12975650  0.87024350  1
  O  O41  1  0.37024350  0.37024350  0.85040450  1
  O  O42  1  0.85040450  0.37024350  0.37024350  1
  O  O43  1  0.64959550  0.87024350  0.12975650  1
  O  O44  1  0.62975650  0.85040450  0.62975650  1
  O  O45  1  0.85040450  0.62975650  0.62975650  1
  O  O46  1  0.62975650  0.62975650  0.85040450  1
  O  O47  1  0.62975650  0.37024350  0.14959550  1
  O  O48  1  0.37024350  0.14959550  0.62975650  1
  O  O49  1  0.62975650  0.14959550  0.37024350  1
  O  O50  1  0.87024350  0.35040450  0.87024350  1
  O  O51  1  0.37024350  0.62975650  0.14959550  1
  O  O52  1  0.14959550  0.62975650  0.37024350  1
  O  O53  1  0.87024350  0.87024350  0.35040450  1
  O  O54  1  0.35040450  0.87024350  0.87024350  1
  O  O55  1  0.14959550  0.37024350  0.62975650  1
