# generated using pymatgen
data_Sr2CdAs2
_symmetry_space_group_name_H-M   'P 1'
_cell_length_a   4.48220000
_cell_length_b   17.09708400
_cell_length_c   7.68813700
_cell_angle_alpha   90.00000000
_cell_angle_beta   90.00000000
_cell_angle_gamma   90.00000000
_symmetry_Int_Tables_number   1
_chemical_formula_structural   Sr2CdAs2
_chemical_formula_sum   'Sr8 Cd4 As8'
_cell_volume   589.16154233
_cell_formula_units_Z   4
loop_
 _symmetry_equiv_pos_site_id
 _symmetry_equiv_pos_as_xyz
  1  'x, y, z'
loop_
 _atom_site_type_symbol
 _atom_site_label
 _atom_site_symmetry_multiplicity
 _atom_site_fract_x
 _atom_site_fract_y
 _atom_site_fract_z
 _atom_site_occupancy
  Sr  Sr0  1  0.50000000  0.96585200  0.23598800  1
  Sr  Sr1  1  0.50000000  0.79715200  0.89265000  1
  Sr  Sr2  1  0.00000000  0.70284800  0.39265000  1
  Sr  Sr3  1  0.00000000  0.53414800  0.73598800  1
  Sr  Sr4  1  0.00000000  0.46585200  0.23598800  1
  Sr  Sr5  1  0.00000000  0.29715200  0.89265000  1
  Sr  Sr6  1  0.50000000  0.20284800  0.39265000  1
  Sr  Sr7  1  0.50000000  0.03414800  0.73598800  1
  Cd  Cd8  1  0.00000000  0.90403200  0.57798800  1
  Cd  Cd9  1  0.50000000  0.59596800  0.07798800  1
  Cd  Cd10  1  0.50000000  0.40403200  0.57798800  1
  Cd  Cd11  1  0.00000000  0.09596800  0.07798800  1
  As  As12  1  0.00000000  0.93667000  0.94188400  1
  As  As13  1  0.50000000  0.82446900  0.48584800  1
  As  As14  1  0.00000000  0.67553100  0.98584800  1
  As  As15  1  0.50000000  0.56333000  0.44188400  1
  As  As16  1  0.50000000  0.43667000  0.94188400  1
  As  As17  1  0.00000000  0.32446900  0.48584800  1
  As  As18  1  0.50000000  0.17553100  0.98584800  1
  As  As19  1  0.00000000  0.06333000  0.44188400  1
