# generated using pymatgen
data_Ba9La5Br33
_symmetry_space_group_name_H-M   'P 1'
_cell_length_a   12.24150400
_cell_length_b   12.28783351
_cell_length_c   23.49405107
_cell_angle_alpha   99.96532803
_cell_angle_beta   99.56563558
_cell_angle_gamma   108.49781304
_symmetry_Int_Tables_number   1
_chemical_formula_structural   Ba9La5Br33
_chemical_formula_sum   'Ba18 La10 Br66'
_cell_volume   3207.06690799
_cell_formula_units_Z   2
loop_
 _symmetry_equiv_pos_site_id
 _symmetry_equiv_pos_as_xyz
  1  'x, y, z'
loop_
 _atom_site_type_symbol
 _atom_site_label
 _atom_site_symmetry_multiplicity
 _atom_site_fract_x
 _atom_site_fract_y
 _atom_site_fract_z
 _atom_site_occupancy
  Ba  Ba0  1  0.92381500  0.25409800  0.92851400  1
  Ba  Ba1  1  0.31983600  0.09250700  0.96566200  1
  Ba  Ba2  1  0.47252600  0.02281200  0.19479000  1
  Ba  Ba3  1  0.86883900  0.26632900  0.33939700  1
  Ba  Ba4  1  0.25051000  0.12513800  0.37667200  1
  Ba  Ba5  1  0.67669600  0.39823600  0.53998600  1
  Ba  Ba6  1  0.07528700  0.24328400  0.56483700  1
  Ba  Ba7  1  0.75801500  0.35985700  0.12215000  1
  Ba  Ba8  1  0.13680000  0.22978800  0.16065900  1
  Ba  Ba9  1  0.86320000  0.77021200  0.83934100  1
  Ba  Ba10  1  0.24198500  0.64014300  0.87785000  1
  Ba  Ba11  1  0.92471300  0.75671600  0.43516300  1
  Ba  Ba12  1  0.32330400  0.60176400  0.46001400  1
  Ba  Ba13  1  0.74949000  0.87486200  0.62332800  1
  Ba  Ba14  1  0.13116100  0.73367100  0.66060300  1
  Ba  Ba15  1  0.52747400  0.97718800  0.80521000  1
  Ba  Ba16  1  0.68016400  0.90749300  0.03433800  1
  Ba  Ba17  1  0.07618500  0.74590200  0.07148600  1
  La  La18  1  0.38107000  0.04490600  0.58659000  1
  La  La19  1  0.18261500  0.14166000  0.76466500  1
  La  La20  1  0.85703700  0.35091900  0.73258500  1
  La  La21  1  0.62535100  0.45779000  0.92595800  1
  La  La22  1  0.46211500  0.53465800  0.68693000  1
  La  La23  1  0.53788500  0.46534200  0.31307000  1
  La  La24  1  0.37464900  0.54221000  0.07404200  1
  La  La25  1  0.14296300  0.64908100  0.26741500  1
  La  La26  1  0.81738500  0.85834000  0.23533500  1
  La  La27  1  0.61893000  0.95509400  0.41341000  1
  Br  Br28  1  0.77204200  0.14073600  0.78316300  1
  Br  Br29  1  0.95106200  0.15455800  0.67545800  1
  Br  Br30  1  0.62122800  0.21093200  0.91898300  1
  Br  Br31  1  0.74254000  0.04797700  0.19433800  1
  Br  Br32  1  0.15860000  0.01439800  0.63600600  1
  Br  Br33  1  0.06474500  0.07929800  0.87285800  1
  Br  Br34  1  0.65355700  0.18344400  0.62860000  1
  Br  Br35  1  0.43649800  0.17939500  0.73696300  1
  Br  Br36  1  0.80847800  0.22094000  0.47494700  1
  Br  Br37  1  0.58024800  0.11643400  0.33976000  1
  Br  Br38  1  0.47821000  0.11818900  0.47551000  1
  Br  Br39  1  0.15990100  0.03817500  0.48842900  1
  Br  Br40  1  0.35841900  0.29947200  0.87861300  1
  Br  Br41  1  0.88725100  0.18517500  0.06095700  1
  Br  Br42  1  0.81725100  0.45383700  0.85442600  1
  Br  Br43  1  0.55044300  0.10546200  0.07322500  1
  Br  Br44  1  0.94428000  0.42918300  0.62596100  1
  Br  Br45  1  0.23962900  0.03567000  0.09338600  1
  Br  Br46  1  0.39677900  0.30204600  0.59027300  1
  Br  Br47  1  0.98151800  0.38171600  0.22663400  1
  Br  Br48  1  0.35247100  0.21295600  0.26355900  1
  Br  Br49  1  0.65718600  0.31711700  0.24187200  1
  Br  Br50  1  0.03304300  0.11669700  0.27485500  1
  Br  Br51  1  0.25003300  0.35906000  0.71070200  1
  Br  Br52  1  0.70299200  0.49786200  0.69335200  1
  Br  Br53  1  0.07532900  0.35442400  0.82182900  1
  Br  Br54  1  0.75179700  0.46587400  0.40555300  1
  Br  Br55  1  0.56634200  0.55810600  0.82085300  1
  Br  Br56  1  0.45169800  0.39474100  0.42336900  1
  Br  Br57  1  0.79778900  0.71356800  0.96935800  1
  Br  Br58  1  0.47263300  0.61087500  0.96530800  1
  Br  Br59  1  0.12633300  0.31822600  0.43706300  1
  Br  Br60  1  0.14841700  0.52887800  0.98412000  1
  Br  Br61  1  0.85158300  0.47112200  0.01588000  1
  Br  Br62  1  0.87366700  0.68177400  0.56293700  1
  Br  Br63  1  0.52736700  0.38912500  0.03469200  1
  Br  Br64  1  0.20221100  0.28643200  0.03064200  1
  Br  Br65  1  0.54830200  0.60525900  0.57663100  1
  Br  Br66  1  0.43365800  0.44189400  0.17914700  1
  Br  Br67  1  0.24820300  0.53412600  0.59444700  1
  Br  Br68  1  0.92467100  0.64557600  0.17817100  1
  Br  Br69  1  0.29700800  0.50213800  0.30664800  1
  Br  Br70  1  0.74996700  0.64094000  0.28929800  1
  Br  Br71  1  0.96695700  0.88330300  0.72514500  1
  Br  Br72  1  0.34281400  0.68288300  0.75812800  1
  Br  Br73  1  0.64752900  0.78704400  0.73644100  1
  Br  Br74  1  0.01848200  0.61828400  0.77336600  1
  Br  Br75  1  0.60322100  0.69795400  0.40972700  1
  Br  Br76  1  0.76037100  0.96433000  0.90661400  1
  Br  Br77  1  0.05572000  0.57081700  0.37403900  1
  Br  Br78  1  0.44955700  0.89453800  0.92677500  1
  Br  Br79  1  0.18274900  0.54616300  0.14557400  1
  Br  Br80  1  0.11274900  0.81482500  0.93904300  1
  Br  Br81  1  0.64158100  0.70052800  0.12138700  1
  Br  Br82  1  0.84009900  0.96182500  0.51157100  1
  Br  Br83  1  0.52179000  0.88181100  0.52449000  1
  Br  Br84  1  0.41975200  0.88356600  0.66024000  1
  Br  Br85  1  0.19152200  0.77906000  0.52505300  1
  Br  Br86  1  0.56350200  0.82060500  0.26303700  1
  Br  Br87  1  0.34644300  0.81655600  0.37140000  1
  Br  Br88  1  0.93525500  0.92070200  0.12714200  1
  Br  Br89  1  0.84140000  0.98560200  0.36399400  1
  Br  Br90  1  0.25746000  0.95202300  0.80566200  1
  Br  Br91  1  0.37877200  0.78906800  0.08101700  1
  Br  Br92  1  0.04893800  0.84544200  0.32454200  1
  Br  Br93  1  0.22795800  0.85926400  0.21683700  1
