# generated using pymatgen
data_Na4V2C4SO16
_symmetry_space_group_name_H-M   'P 1'
_cell_length_a   13.83768400
_cell_length_b   13.89669400
_cell_length_c   14.41041000
_cell_angle_alpha   90.00000000
_cell_angle_beta   90.00000000
_cell_angle_gamma   90.00000000
_symmetry_Int_Tables_number   1
_chemical_formula_structural   Na4V2C4SO16
_chemical_formula_sum   'Na32 V16 C32 S8 O128'
_cell_volume   2771.09388993
_cell_formula_units_Z   8
loop_
 _symmetry_equiv_pos_site_id
 _symmetry_equiv_pos_as_xyz
  1  'x, y, z'
loop_
 _atom_site_type_symbol
 _atom_site_label
 _atom_site_symmetry_multiplicity
 _atom_site_fract_x
 _atom_site_fract_y
 _atom_site_fract_z
 _atom_site_occupancy
  Na  Na0  1  0.70927200  0.00000000  0.00000000  1
  Na  Na1  1  0.50000000  0.20884200  0.00000000  1
  Na  Na2  1  0.75000000  0.45884200  0.25000000  1
  Na  Na3  1  0.95927200  0.25000000  0.25000000  1
  Na  Na4  1  0.29072800  0.00000000  0.00000000  1
  Na  Na5  1  0.50000000  0.79115800  0.00000000  1
  Na  Na6  1  0.75000000  0.04115800  0.25000000  1
  Na  Na7  1  0.54072800  0.25000000  0.25000000  1
  Na  Na8  1  0.70927200  0.50000000  0.50000000  1
  Na  Na9  1  0.50000000  0.70884200  0.50000000  1
  Na  Na10  1  0.75000000  0.95884200  0.75000000  1
  Na  Na11  1  0.95927200  0.75000000  0.75000000  1
  Na  Na12  1  0.29072800  0.50000000  0.50000000  1
  Na  Na13  1  0.50000000  0.29115800  0.50000000  1
  Na  Na14  1  0.75000000  0.54115800  0.75000000  1
  Na  Na15  1  0.54072800  0.75000000  0.75000000  1
  Na  Na16  1  0.20927200  0.00000000  0.50000000  1
  Na  Na17  1  0.00000000  0.20884200  0.50000000  1
  Na  Na18  1  0.25000000  0.45884200  0.75000000  1
  Na  Na19  1  0.45927200  0.25000000  0.75000000  1
  Na  Na20  1  0.79072800  0.00000000  0.50000000  1
  Na  Na21  1  0.00000000  0.79115800  0.50000000  1
  Na  Na22  1  0.25000000  0.04115800  0.75000000  1
  Na  Na23  1  0.04072800  0.25000000  0.75000000  1
  Na  Na24  1  0.20927200  0.50000000  0.00000000  1
  Na  Na25  1  0.00000000  0.70884200  0.00000000  1
  Na  Na26  1  0.25000000  0.95884200  0.25000000  1
  Na  Na27  1  0.45927200  0.75000000  0.25000000  1
  Na  Na28  1  0.79072800  0.50000000  0.00000000  1
  Na  Na29  1  0.00000000  0.29115800  0.00000000  1
  Na  Na30  1  0.25000000  0.54115800  0.25000000  1
  Na  Na31  1  0.04072800  0.75000000  0.25000000  1
  V  V32  1  0.87500000  0.87500000  0.12500000  1
  V  V33  1  0.62500000  0.62500000  0.12500000  1
  V  V34  1  0.87500000  0.62500000  0.37500000  1
  V  V35  1  0.62500000  0.87500000  0.37500000  1
  V  V36  1  0.87500000  0.37500000  0.62500000  1
  V  V37  1  0.62500000  0.12500000  0.62500000  1
  V  V38  1  0.87500000  0.12500000  0.87500000  1
  V  V39  1  0.62500000  0.37500000  0.87500000  1
  V  V40  1  0.37500000  0.87500000  0.62500000  1
  V  V41  1  0.12500000  0.62500000  0.62500000  1
  V  V42  1  0.37500000  0.62500000  0.87500000  1
  V  V43  1  0.12500000  0.87500000  0.87500000  1
  V  V44  1  0.37500000  0.37500000  0.12500000  1
  V  V45  1  0.12500000  0.12500000  0.12500000  1
  V  V46  1  0.37500000  0.12500000  0.37500000  1
  V  V47  1  0.12500000  0.37500000  0.37500000  1
  C  C48  1  0.16030900  0.15880950  0.33417350  1
  C  C49  1  0.91030900  0.40880950  0.41582650  1
  C  C50  1  0.66030900  0.84119050  0.16582650  1
  C  C51  1  0.33969100  0.15880950  0.16582650  1
  C  C52  1  0.91030900  0.09119050  0.08417350  1
  C  C53  1  0.58969100  0.40880950  0.08417350  1
  C  C54  1  0.83969100  0.84119050  0.33417350  1
  C  C55  1  0.58969100  0.09119050  0.41582650  1
  C  C56  1  0.16030900  0.65880950  0.83417350  1
  C  C57  1  0.91030900  0.90880950  0.91582650  1
  C  C58  1  0.66030900  0.34119050  0.66582650  1
  C  C59  1  0.33969100  0.65880950  0.66582650  1
  C  C60  1  0.91030900  0.59119050  0.58417350  1
  C  C61  1  0.58969100  0.90880950  0.58417350  1
  C  C62  1  0.83969100  0.34119050  0.83417350  1
  C  C63  1  0.58969100  0.59119050  0.91582650  1
  C  C64  1  0.66030900  0.15880950  0.83417350  1
  C  C65  1  0.41030900  0.40880950  0.91582650  1
  C  C66  1  0.16030900  0.84119050  0.66582650  1
  C  C67  1  0.83969100  0.15880950  0.66582650  1
  C  C68  1  0.41030900  0.09119050  0.58417350  1
  C  C69  1  0.08969100  0.40880950  0.58417350  1
  C  C70  1  0.33969100  0.84119050  0.83417350  1
  C  C71  1  0.08969100  0.09119050  0.91582650  1
  C  C72  1  0.66030900  0.65880950  0.33417350  1
  C  C73  1  0.41030900  0.90880950  0.41582650  1
  C  C74  1  0.16030900  0.34119050  0.16582650  1
  C  C75  1  0.83969100  0.65880950  0.16582650  1
  C  C76  1  0.41030900  0.59119050  0.08417350  1
  C  C77  1  0.08969100  0.90880950  0.08417350  1
  C  C78  1  0.33969100  0.34119050  0.33417350  1
  C  C79  1  0.08969100  0.59119050  0.41582650  1
  S  S80  1  0.75000000  0.25000000  0.25000000  1
  S  S81  1  0.50000000  0.00000000  0.00000000  1
  S  S82  1  0.75000000  0.75000000  0.75000000  1
  S  S83  1  0.50000000  0.50000000  0.50000000  1
  S  S84  1  0.25000000  0.25000000  0.75000000  1
  S  S85  1  0.00000000  0.00000000  0.50000000  1
  S  S86  1  0.25000000  0.75000000  0.25000000  1
  S  S87  1  0.00000000  0.50000000  0.00000000  1
  O  O88  1  0.23104350  0.14095950  0.39089700  1
  O  O89  1  0.68660150  0.31298300  0.30837950  1
  O  O90  1  0.14810900  0.10357100  0.26300700  1
  O  O91  1  0.89810900  0.35357100  0.48699300  1
  O  O92  1  0.64810900  0.89642900  0.23699300  1
  O  O93  1  0.35068100  0.97854100  0.39897400  1
  O  O94  1  0.68660150  0.18701700  0.19162050  1
  O  O95  1  0.81339850  0.18701700  0.30837950  1
  O  O96  1  0.14931900  0.97854100  0.10102600  1
  O  O97  1  0.35189100  0.10357100  0.23699300  1
  O  O98  1  0.48104350  0.89095950  0.35910300  1
  O  O99  1  0.81339850  0.31298300  0.19162050  1
  O  O100  1  0.73104350  0.85904050  0.10910300  1
  O  O101  1  0.26895650  0.14095950  0.10910300  1
  O  O102  1  0.10068100  0.22854100  0.35102600  1
  O  O103  1  0.85068100  0.02145900  0.10102600  1
  O  O104  1  0.39931900  0.22854100  0.14897400  1
  O  O105  1  0.64931900  0.02145900  0.39897400  1
  O  O106  1  0.98104350  0.10904050  0.14089700  1
  O  O107  1  0.01895650  0.89095950  0.14089700  1
  O  O108  1  0.43660150  0.93701700  0.05837950  1
  O  O109  1  0.76895650  0.85904050  0.39089700  1
  O  O110  1  0.39810900  0.64642900  0.01300700  1
  O  O111  1  0.60068100  0.77145900  0.14897400  1
  O  O112  1  0.93660150  0.06298300  0.44162050  1
  O  O113  1  0.56339850  0.06298300  0.05837950  1
  O  O114  1  0.89931900  0.77145900  0.35102600  1
  O  O115  1  0.60189100  0.35357100  0.01300700  1
  O  O116  1  0.85189100  0.89642900  0.26300700  1
  O  O117  1  0.10189100  0.64642900  0.48699300  1
  O  O118  1  0.06339850  0.93701700  0.44162050  1
  O  O119  1  0.51895650  0.10904050  0.35910300  1
  O  O120  1  0.23104350  0.64095950  0.89089700  1
  O  O121  1  0.68660150  0.81298300  0.80837950  1
  O  O122  1  0.14810900  0.60357100  0.76300700  1
  O  O123  1  0.89810900  0.85357100  0.98699300  1
  O  O124  1  0.64810900  0.39642900  0.73699300  1
  O  O125  1  0.35068100  0.47854100  0.89897400  1
  O  O126  1  0.68660150  0.68701700  0.69162050  1
  O  O127  1  0.81339850  0.68701700  0.80837950  1
  O  O128  1  0.14931900  0.47854100  0.60102600  1
  O  O129  1  0.35189100  0.60357100  0.73699300  1
  O  O130  1  0.48104350  0.39095950  0.85910300  1
  O  O131  1  0.81339850  0.81298300  0.69162050  1
  O  O132  1  0.73104350  0.35904050  0.60910300  1
  O  O133  1  0.26895650  0.64095950  0.60910300  1
  O  O134  1  0.10068100  0.72854100  0.85102600  1
  O  O135  1  0.85068100  0.52145900  0.60102600  1
  O  O136  1  0.39931900  0.72854100  0.64897400  1
  O  O137  1  0.64931900  0.52145900  0.89897400  1
  O  O138  1  0.98104350  0.60904050  0.64089700  1
  O  O139  1  0.01895650  0.39095950  0.64089700  1
  O  O140  1  0.43660150  0.43701700  0.55837950  1
  O  O141  1  0.76895650  0.35904050  0.89089700  1
  O  O142  1  0.39810900  0.14642900  0.51300700  1
  O  O143  1  0.60068100  0.27145900  0.64897400  1
  O  O144  1  0.93660150  0.56298300  0.94162050  1
  O  O145  1  0.56339850  0.56298300  0.55837950  1
  O  O146  1  0.89931900  0.27145900  0.85102600  1
  O  O147  1  0.60189100  0.85357100  0.51300700  1
  O  O148  1  0.85189100  0.39642900  0.76300700  1
  O  O149  1  0.10189100  0.14642900  0.98699300  1
  O  O150  1  0.06339850  0.43701700  0.94162050  1
  O  O151  1  0.51895650  0.60904050  0.85910300  1
  O  O152  1  0.73104350  0.14095950  0.89089700  1
  O  O153  1  0.18660150  0.31298300  0.80837950  1
  O  O154  1  0.64810900  0.10357100  0.76300700  1
  O  O155  1  0.39810900  0.35357100  0.98699300  1
  O  O156  1  0.14810900  0.89642900  0.73699300  1
  O  O157  1  0.85068100  0.97854100  0.89897400  1
  O  O158  1  0.18660150  0.18701700  0.69162050  1
  O  O159  1  0.31339850  0.18701700  0.80837950  1
  O  O160  1  0.64931900  0.97854100  0.60102600  1
  O  O161  1  0.85189100  0.10357100  0.73699300  1
  O  O162  1  0.98104350  0.89095950  0.85910300  1
  O  O163  1  0.31339850  0.31298300  0.69162050  1
  O  O164  1  0.23104350  0.85904050  0.60910300  1
  O  O165  1  0.76895650  0.14095950  0.60910300  1
  O  O166  1  0.60068100  0.22854100  0.85102600  1
  O  O167  1  0.35068100  0.02145900  0.60102600  1
  O  O168  1  0.89931900  0.22854100  0.64897400  1
  O  O169  1  0.14931900  0.02145900  0.89897400  1
  O  O170  1  0.48104350  0.10904050  0.64089700  1
  O  O171  1  0.51895650  0.89095950  0.64089700  1
  O  O172  1  0.93660150  0.93701700  0.55837950  1
  O  O173  1  0.26895650  0.85904050  0.89089700  1
  O  O174  1  0.89810900  0.64642900  0.51300700  1
  O  O175  1  0.10068100  0.77145900  0.64897400  1
  O  O176  1  0.43660150  0.06298300  0.94162050  1
  O  O177  1  0.06339850  0.06298300  0.55837950  1
  O  O178  1  0.39931900  0.77145900  0.85102600  1
  O  O179  1  0.10189100  0.35357100  0.51300700  1
  O  O180  1  0.35189100  0.89642900  0.76300700  1
  O  O181  1  0.60189100  0.64642900  0.98699300  1
  O  O182  1  0.56339850  0.93701700  0.94162050  1
  O  O183  1  0.01895650  0.10904050  0.85910300  1
  O  O184  1  0.73104350  0.64095950  0.39089700  1
  O  O185  1  0.18660150  0.81298300  0.30837950  1
  O  O186  1  0.64810900  0.60357100  0.26300700  1
  O  O187  1  0.39810900  0.85357100  0.48699300  1
  O  O188  1  0.14810900  0.39642900  0.23699300  1
  O  O189  1  0.85068100  0.47854100  0.39897400  1
  O  O190  1  0.18660150  0.68701700  0.19162050  1
  O  O191  1  0.31339850  0.68701700  0.30837950  1
  O  O192  1  0.64931900  0.47854100  0.10102600  1
  O  O193  1  0.85189100  0.60357100  0.23699300  1
  O  O194  1  0.98104350  0.39095950  0.35910300  1
  O  O195  1  0.31339850  0.81298300  0.19162050  1
  O  O196  1  0.23104350  0.35904050  0.10910300  1
  O  O197  1  0.76895650  0.64095950  0.10910300  1
  O  O198  1  0.60068100  0.72854100  0.35102600  1
  O  O199  1  0.35068100  0.52145900  0.10102600  1
  O  O200  1  0.89931900  0.72854100  0.14897400  1
  O  O201  1  0.14931900  0.52145900  0.39897400  1
  O  O202  1  0.48104350  0.60904050  0.14089700  1
  O  O203  1  0.51895650  0.39095950  0.14089700  1
  O  O204  1  0.93660150  0.43701700  0.05837950  1
  O  O205  1  0.26895650  0.35904050  0.39089700  1
  O  O206  1  0.89810900  0.14642900  0.01300700  1
  O  O207  1  0.10068100  0.27145900  0.14897400  1
  O  O208  1  0.43660150  0.56298300  0.44162050  1
  O  O209  1  0.06339850  0.56298300  0.05837950  1
  O  O210  1  0.39931900  0.27145900  0.35102600  1
  O  O211  1  0.10189100  0.85357100  0.01300700  1
  O  O212  1  0.35189100  0.39642900  0.26300700  1
  O  O213  1  0.60189100  0.14642900  0.48699300  1
  O  O214  1  0.56339850  0.43701700  0.44162050  1
  O  O215  1  0.01895650  0.60904050  0.35910300  1
