# generated using pymatgen
data_Sb2S2O
_symmetry_space_group_name_H-M   'P 1'
_cell_length_a   11.19866200
_cell_length_b   4.06163800
_cell_length_c   10.36558893
_cell_angle_alpha   90.00000000
_cell_angle_beta   103.38355345
_cell_angle_gamma   90.00000000
_symmetry_Int_Tables_number   1
_chemical_formula_structural   Sb2S2O
_chemical_formula_sum   'Sb8 S8 O4'
_cell_volume   458.67366455
_cell_formula_units_Z   4
loop_
 _symmetry_equiv_pos_site_id
 _symmetry_equiv_pos_as_xyz
  1  'x, y, z'
loop_
 _atom_site_type_symbol
 _atom_site_label
 _atom_site_symmetry_multiplicity
 _atom_site_fract_x
 _atom_site_fract_y
 _atom_site_fract_z
 _atom_site_occupancy
  Sb  Sb0  1  0.79440100  0.50000000  0.13565600  1
  Sb  Sb1  1  0.70559900  0.00000000  0.86434400  1
  Sb  Sb2  1  0.61580900  0.00000000  0.38379900  1
  Sb  Sb3  1  0.88419100  0.50000000  0.61620100  1
  Sb  Sb4  1  0.29440100  0.00000000  0.13565600  1
  Sb  Sb5  1  0.20559900  0.50000000  0.86434400  1
  Sb  Sb6  1  0.11580900  0.50000000  0.38379900  1
  Sb  Sb7  1  0.38419100  0.00000000  0.61620100  1
  S  S8  1  0.84000100  0.00000000  0.41558200  1
  S  S9  1  0.65999900  0.50000000  0.58441800  1
  S  S10  1  0.59028300  0.50000000  0.20187700  1
  S  S11  1  0.90971700  0.00000000  0.79812300  1
  S  S12  1  0.34000100  0.50000000  0.41558200  1
  S  S13  1  0.15999900  0.00000000  0.58441800  1
  S  S14  1  0.09028300  0.00000000  0.20187700  1
  S  S15  1  0.40971700  0.50000000  0.79812300  1
  O  O16  1  0.74840200  0.00000000  0.06837000  1
  O  O17  1  0.75159800  0.50000000  0.93163000  1
  O  O18  1  0.24840200  0.50000000  0.06837000  1
  O  O19  1  0.25159800  0.00000000  0.93163000  1
