# generated using pymatgen
data_Li4V5(FeO6)2
_symmetry_space_group_name_H-M   'P 1'
_cell_length_a   5.20542400
_cell_length_b   9.00639400
_cell_length_c   9.90617088
_cell_angle_alpha   90.00000000
_cell_angle_beta   100.35321566
_cell_angle_gamma   90.00000000
_symmetry_Int_Tables_number   1
_chemical_formula_structural   Li4V5(FeO6)2
_chemical_formula_sum   'Li8 V10 Fe4 O24'
_cell_volume   456.86062112
_cell_formula_units_Z   2
loop_
 _symmetry_equiv_pos_site_id
 _symmetry_equiv_pos_as_xyz
  1  'x, y, z'
loop_
 _atom_site_type_symbol
 _atom_site_label
 _atom_site_symmetry_multiplicity
 _atom_site_fract_x
 _atom_site_fract_y
 _atom_site_fract_z
 _atom_site_occupancy
  Li  Li0  1  0.01103000  0.08441100  0.25833500  1
  Li  Li1  1  0.48371800  0.08052400  0.74045500  1
  Li  Li2  1  0.75818300  0.41779600  0.49682500  1
  Li  Li3  1  0.49935000  0.41648700  0.74272900  1
  Li  Li4  1  0.98897000  0.58441100  0.74166500  1
  Li  Li5  1  0.51628200  0.58052400  0.25954500  1
  Li  Li6  1  0.24181700  0.91779600  0.50317500  1
  Li  Li7  1  0.50065000  0.91648700  0.25727100  1
  V  V8  1  0.25352200  0.08121400  0.99770400  1
  V  V9  1  0.74891300  0.07226500  0.50514700  1
  V  V10  1  0.98809400  0.25120900  0.74476100  1
  V  V11  1  0.24547600  0.42664000  0.00227400  1
  V  V12  1  0.51360800  0.25620400  0.25757800  1
  V  V13  1  0.25108700  0.57226500  0.49485300  1
  V  V14  1  0.74647800  0.58121400  0.00229600  1
  V  V15  1  0.01190600  0.75120900  0.25523900  1
  V  V16  1  0.48639200  0.75620400  0.74242200  1
  V  V17  1  0.75452400  0.92664000  0.99772600  1
  Fe  Fe18  1  0.23809700  0.24667800  0.49434100  1
  Fe  Fe19  1  0.75738800  0.25612400  0.00878200  1
  Fe  Fe20  1  0.24261200  0.75612400  0.99121800  1
  Fe  Fe21  1  0.76190300  0.74667800  0.50565900  1
  O  O22  1  0.11242800  0.09743900  0.61565700  1
  O  O23  1  0.88290400  0.09253800  0.88249200  1
  O  O24  1  0.15356500  0.24844500  0.11781600  1
  O  O25  1  0.86232300  0.22951700  0.38030100  1
  O  O26  1  0.38724100  0.09365100  0.37941200  1
  O  O27  1  0.61587800  0.08508200  0.12523300  1
  O  O28  1  0.63580900  0.23774500  0.62844300  1
  O  O29  1  0.12881900  0.40181700  0.62049500  1
  O  O30  1  0.88209500  0.42432700  0.87918100  1
  O  O31  1  0.35160200  0.25408500  0.88103900  1
  O  O32  1  0.88757200  0.59743900  0.38434300  1
  O  O33  1  0.11709600  0.59253800  0.11750800  1
  O  O34  1  0.60034000  0.42516200  0.12027200  1
  O  O35  1  0.38800700  0.40493800  0.38636100  1
  O  O36  1  0.13767700  0.72951700  0.61969900  1
  O  O37  1  0.61275900  0.59365100  0.62058800  1
  O  O38  1  0.38412200  0.58508200  0.87476700  1
  O  O39  1  0.84643500  0.74844500  0.88218400  1
  O  O40  1  0.64839800  0.75408500  0.11896100  1
  O  O41  1  0.11790500  0.92432700  0.12081900  1
  O  O42  1  0.87118100  0.90181700  0.37950500  1
  O  O43  1  0.36419100  0.73774500  0.37155700  1
  O  O44  1  0.61199300  0.90493800  0.61363900  1
  O  O45  1  0.39966000  0.92516200  0.87972800  1
