# generated using pymatgen
data_K3Dy(AsS4)2
_symmetry_space_group_name_H-M   'P 1'
_cell_length_a   10.58639000
_cell_length_b   18.95788000
_cell_length_c   9.02191379
_cell_angle_alpha   90.00000000
_cell_angle_beta   117.61148887
_cell_angle_gamma   90.00000000
_symmetry_Int_Tables_number   1
_chemical_formula_structural   K3Dy(AsS4)2
_chemical_formula_sum   'K12 Dy4 As8 S32'
_cell_volume   1604.44300490
_cell_formula_units_Z   4
loop_
 _symmetry_equiv_pos_site_id
 _symmetry_equiv_pos_as_xyz
  1  'x, y, z'
loop_
 _atom_site_type_symbol
 _atom_site_label
 _atom_site_symmetry_multiplicity
 _atom_site_fract_x
 _atom_site_fract_y
 _atom_site_fract_z
 _atom_site_occupancy
  K  K0  1  0.50000000  0.23842700  0.25000000  1
  K  K1  1  0.00000000  0.26157300  0.75000000  1
  K  K2  1  0.50000000  0.00000000  0.00000000  1
  K  K3  1  0.50000000  0.00000000  0.50000000  1
  K  K4  1  0.00000000  0.00445600  0.75000000  1
  K  K5  1  0.50000000  0.49554400  0.25000000  1
  K  K6  1  0.00000000  0.73842700  0.25000000  1
  K  K7  1  0.50000000  0.76157300  0.75000000  1
  K  K8  1  0.00000000  0.50000000  0.00000000  1
  K  K9  1  0.00000000  0.50000000  0.50000000  1
  K  K10  1  0.50000000  0.50445600  0.75000000  1
  K  K11  1  0.00000000  0.99554400  0.25000000  1
  Dy  Dy12  1  0.50000000  0.25658700  0.75000000  1
  Dy  Dy13  1  0.00000000  0.24341300  0.25000000  1
  Dy  Dy14  1  0.00000000  0.75658700  0.75000000  1
  Dy  Dy15  1  0.50000000  0.74341300  0.25000000  1
  As  As16  1  0.77975700  0.12289200  0.89946500  1
  As  As17  1  0.22024300  0.12289200  0.60053500  1
  As  As18  1  0.72024300  0.37710800  0.10053500  1
  As  As19  1  0.27975700  0.37710800  0.39946500  1
  As  As20  1  0.27975700  0.62289200  0.89946500  1
  As  As21  1  0.72024300  0.62289200  0.60053500  1
  As  As22  1  0.22024300  0.87710800  0.10053500  1
  As  As23  1  0.77975700  0.87710800  0.39946500  1
  S  S24  1  0.79806900  0.32644800  0.93902800  1
  S  S25  1  0.20193100  0.32644800  0.56097200  1
  S  S26  1  0.70193100  0.17355200  0.06097200  1
  S  S27  1  0.29806900  0.17355200  0.43902800  1
  S  S28  1  0.48971950  0.35450350  0.97588800  1
  S  S29  1  0.51028050  0.35450350  0.52411200  1
  S  S30  1  0.01028050  0.14549650  0.02411200  1
  S  S31  1  0.98971950  0.14549650  0.47588800  1
  S  S32  1  0.74724750  0.01041250  0.87412100  1
  S  S33  1  0.25275250  0.01041250  0.62587900  1
  S  S34  1  0.75275250  0.48958750  0.12587900  1
  S  S35  1  0.24724750  0.48958750  0.37412100  1
  S  S36  1  0.32378900  0.17687300  0.84408400  1
  S  S37  1  0.67621100  0.17687300  0.65591600  1
  S  S38  1  0.17621100  0.32312700  0.15591600  1
  S  S39  1  0.82378900  0.32312700  0.34408400  1
  S  S40  1  0.29806900  0.82644800  0.93902800  1
  S  S41  1  0.70193100  0.82644800  0.56097200  1
  S  S42  1  0.20193100  0.67355200  0.06097200  1
  S  S43  1  0.79806900  0.67355200  0.43902800  1
  S  S44  1  0.98971950  0.85450350  0.97588800  1
  S  S45  1  0.01028050  0.85450350  0.52411200  1
  S  S46  1  0.51028050  0.64549650  0.02411200  1
  S  S47  1  0.48971950  0.64549650  0.47588800  1
  S  S48  1  0.24724750  0.51041250  0.87412100  1
  S  S49  1  0.75275250  0.51041250  0.62587900  1
  S  S50  1  0.25275250  0.98958750  0.12587900  1
  S  S51  1  0.74724750  0.98958750  0.37412100  1
  S  S52  1  0.82378900  0.67687300  0.84408400  1
  S  S53  1  0.17621100  0.67687300  0.65591600  1
  S  S54  1  0.67621100  0.82312700  0.15591600  1
  S  S55  1  0.32378900  0.82312700  0.34408400  1
