# generated using pymatgen
data_CsAgO
_symmetry_space_group_name_H-M   'P 1'
_cell_length_a   10.45434600
_cell_length_b   10.45434600
_cell_length_c   6.30203000
_cell_angle_alpha   90.00000000
_cell_angle_beta   90.00000000
_cell_angle_gamma   90.00000000
_symmetry_Int_Tables_number   1
_chemical_formula_structural   CsAgO
_chemical_formula_sum   'Cs8 Ag8 O8'
_cell_volume   688.76997231
_cell_formula_units_Z   8
loop_
 _symmetry_equiv_pos_site_id
 _symmetry_equiv_pos_as_xyz
  1  'x, y, z'
loop_
 _atom_site_type_symbol
 _atom_site_label
 _atom_site_symmetry_multiplicity
 _atom_site_fract_x
 _atom_site_fract_y
 _atom_site_fract_z
 _atom_site_occupancy
  Cs  Cs0  1  0.69268600  0.00000000  0.50000000  1
  Cs  Cs1  1  0.50000000  0.19268600  0.00000000  1
  Cs  Cs2  1  0.30731400  0.00000000  0.50000000  1
  Cs  Cs3  1  0.50000000  0.80731400  0.00000000  1
  Cs  Cs4  1  0.19268600  0.50000000  0.00000000  1
  Cs  Cs5  1  0.00000000  0.69268600  0.50000000  1
  Cs  Cs6  1  0.80731400  0.50000000  0.00000000  1
  Cs  Cs7  1  0.00000000  0.30731400  0.50000000  1
  Ag  Ag8  1  0.85935100  0.14064900  0.00000000  1
  Ag  Ag9  1  0.64064900  0.35935100  0.50000000  1
  Ag  Ag10  1  0.64064900  0.64064900  0.50000000  1
  Ag  Ag11  1  0.85935100  0.85935100  0.00000000  1
  Ag  Ag12  1  0.35935100  0.64064900  0.50000000  1
  Ag  Ag13  1  0.14064900  0.85935100  0.00000000  1
  Ag  Ag14  1  0.14064900  0.14064900  0.00000000  1
  Ag  Ag15  1  0.35935100  0.35935100  0.50000000  1
  O  O16  1  0.28301000  0.00000000  0.00000000  1
  O  O17  1  0.50000000  0.78301000  0.50000000  1
  O  O18  1  0.50000000  0.21699000  0.50000000  1
  O  O19  1  0.71699000  0.00000000  0.00000000  1
  O  O20  1  0.78301000  0.50000000  0.50000000  1
  O  O21  1  0.00000000  0.28301000  0.00000000  1
  O  O22  1  0.00000000  0.71699000  0.00000000  1
  O  O23  1  0.21699000  0.50000000  0.50000000  1
