# generated using pymatgen
data_CaBiO3
_symmetry_space_group_name_H-M   'P 1'
_cell_length_a   5.93909377
_cell_length_b   5.93909377
_cell_length_c   15.37601672
_cell_angle_alpha   90.00000000
_cell_angle_beta   90.00000000
_cell_angle_gamma   120.00000000
_symmetry_Int_Tables_number   1
_chemical_formula_structural   CaBiO3
_chemical_formula_sum   'Ca6 Bi6 O18'
_cell_volume   469.69381195
_cell_formula_units_Z   6
loop_
 _symmetry_equiv_pos_site_id
 _symmetry_equiv_pos_as_xyz
  1  'x, y, z'
loop_
 _atom_site_type_symbol
 _atom_site_label
 _atom_site_symmetry_multiplicity
 _atom_site_fract_x
 _atom_site_fract_y
 _atom_site_fract_z
 _atom_site_occupancy
  Ca  Ca0  1  0.66666667  0.33333333  0.19571933  1
  Ca  Ca1  1  0.00000000  0.00000000  0.13761400  1
  Ca  Ca2  1  0.33333333  0.66666667  0.52905267  1
  Ca  Ca3  1  0.66666667  0.33333333  0.47094733  1
  Ca  Ca4  1  0.00000000  0.00000000  0.86238600  1
  Ca  Ca5  1  0.33333333  0.66666667  0.80428067  1
  Bi  Bi6  1  0.33333333  0.66666667  0.31340267  1
  Bi  Bi7  1  0.33333333  0.66666667  0.01993067  1
  Bi  Bi8  1  0.00000000  0.00000000  0.64673600  1
  Bi  Bi9  1  0.00000000  0.00000000  0.35326400  1
  Bi  Bi10  1  0.66666667  0.33333333  0.98006933  1
  Bi  Bi11  1  0.66666667  0.33333333  0.68659733  1
  O  O12  1  0.70518833  0.71778167  0.25445167  1
  O  O13  1  0.28221833  0.98740667  0.25445167  1
  O  O14  1  0.01259333  0.29481167  0.25445167  1
  O  O15  1  0.65407333  0.03852167  0.07888167  1
  O  O16  1  0.38444833  0.34592667  0.07888167  1
  O  O17  1  0.96147833  0.61555167  0.07888167  1
  O  O18  1  0.37185500  0.05111500  0.58778500  1
  O  O19  1  0.94888500  0.32074000  0.58778500  1
  O  O20  1  0.67926000  0.62814500  0.58778500  1
  O  O21  1  0.32074000  0.37185500  0.41221500  1
  O  O22  1  0.05111500  0.67926000  0.41221500  1
  O  O23  1  0.62814500  0.94888500  0.41221500  1
  O  O24  1  0.03852167  0.38444833  0.92111833  1
  O  O25  1  0.61555167  0.65407333  0.92111833  1
  O  O26  1  0.34592667  0.96147833  0.92111833  1
  O  O27  1  0.98740667  0.70518833  0.74554833  1
  O  O28  1  0.71778167  0.01259333  0.74554833  1
  O  O29  1  0.29481167  0.28221833  0.74554833  1
