# generated using pymatgen
data_CuH6(NCl)2
_symmetry_space_group_name_H-M   'P 1'
_cell_length_a   7.64111400
_cell_length_b   10.50654800
_cell_length_c   6.01212000
_cell_angle_alpha   90.00000000
_cell_angle_beta   90.00000000
_cell_angle_gamma   90.00000000
_symmetry_Int_Tables_number   1
_chemical_formula_structural   CuH6(NCl)2
_chemical_formula_sum   'Cu4 H24 N8 Cl8'
_cell_volume   482.66340067
_cell_formula_units_Z   4
loop_
 _symmetry_equiv_pos_site_id
 _symmetry_equiv_pos_as_xyz
  1  'x, y, z'
loop_
 _atom_site_type_symbol
 _atom_site_label
 _atom_site_symmetry_multiplicity
 _atom_site_fract_x
 _atom_site_fract_y
 _atom_site_fract_z
 _atom_site_occupancy
  Cu  Cu0  1  0.50000000  0.38774200  0.25000000  1
  Cu  Cu1  1  0.50000000  0.61225800  0.75000000  1
  Cu  Cu2  1  0.00000000  0.88774200  0.25000000  1
  Cu  Cu3  1  0.00000000  0.11225800  0.75000000  1
  H  H4  1  0.68842550  0.15766950  0.88687900  1
  H  H5  1  0.68842550  0.15766950  0.61312100  1
  H  H6  1  0.69173250  0.02073350  0.75000000  1
  H  H7  1  0.69173250  0.97926650  0.25000000  1
  H  H8  1  0.68842550  0.84233050  0.38687900  1
  H  H9  1  0.68842550  0.84233050  0.11312100  1
  H  H10  1  0.31157450  0.15766950  0.88687900  1
  H  H11  1  0.31157450  0.15766950  0.61312100  1
  H  H12  1  0.30826750  0.02073350  0.75000000  1
  H  H13  1  0.30826750  0.97926650  0.25000000  1
  H  H14  1  0.31157450  0.84233050  0.38687900  1
  H  H15  1  0.31157450  0.84233050  0.11312100  1
  H  H16  1  0.18842550  0.65766950  0.88687900  1
  H  H17  1  0.18842550  0.65766950  0.61312100  1
  H  H18  1  0.19173250  0.52073350  0.75000000  1
  H  H19  1  0.19173250  0.47926650  0.25000000  1
  H  H20  1  0.18842550  0.34233050  0.38687900  1
  H  H21  1  0.18842550  0.34233050  0.11312100  1
  H  H22  1  0.81157450  0.65766950  0.88687900  1
  H  H23  1  0.81157450  0.65766950  0.61312100  1
  H  H24  1  0.80826750  0.52073350  0.75000000  1
  H  H25  1  0.80826750  0.47926650  0.25000000  1
  H  H26  1  0.81157450  0.34233050  0.38687900  1
  H  H27  1  0.81157450  0.34233050  0.11312100  1
  N  N28  1  0.73919850  0.11259450  0.75000000  1
  N  N29  1  0.73919850  0.88740550  0.25000000  1
  N  N30  1  0.26080150  0.11259450  0.75000000  1
  N  N31  1  0.26080150  0.88740550  0.25000000  1
  N  N32  1  0.23919850  0.61259450  0.75000000  1
  N  N33  1  0.23919850  0.38740550  0.25000000  1
  N  N34  1  0.76080150  0.61259450  0.75000000  1
  N  N35  1  0.76080150  0.38740550  0.25000000  1
  Cl  Cl36  1  0.50000000  0.38777600  0.75000000  1
  Cl  Cl37  1  0.50000000  0.16023200  0.25000000  1
  Cl  Cl38  1  0.50000000  0.83976800  0.75000000  1
  Cl  Cl39  1  0.50000000  0.61222400  0.25000000  1
  Cl  Cl40  1  0.00000000  0.88777600  0.75000000  1
  Cl  Cl41  1  0.00000000  0.66023200  0.25000000  1
  Cl  Cl42  1  0.00000000  0.33976800  0.75000000  1
  Cl  Cl43  1  0.00000000  0.11222400  0.25000000  1
