# generated using pymatgen
data_LiGeBO4
_symmetry_space_group_name_H-M   'P 1'
_cell_length_a   4.56149400
_cell_length_b   4.56149400
_cell_length_c   6.99065000
_cell_angle_alpha   90.00000000
_cell_angle_beta   90.00000000
_cell_angle_gamma   90.00000000
_symmetry_Int_Tables_number   1
_chemical_formula_structural   LiGeBO4
_chemical_formula_sum   'Li2 Ge2 B2 O8'
_cell_volume   145.45604501
_cell_formula_units_Z   2
loop_
 _symmetry_equiv_pos_site_id
 _symmetry_equiv_pos_as_xyz
  1  'x, y, z'
loop_
 _atom_site_type_symbol
 _atom_site_label
 _atom_site_symmetry_multiplicity
 _atom_site_fract_x
 _atom_site_fract_y
 _atom_site_fract_z
 _atom_site_occupancy
  Li  Li0  1  0.50000000  0.50000000  0.00000000  1
  Li  Li1  1  0.00000000  0.00000000  0.50000000  1
  Ge  Ge2  1  0.00000000  0.00000000  0.00000000  1
  Ge  Ge3  1  0.50000000  0.50000000  0.50000000  1
  B  B4  1  0.50000000  0.00000000  0.25000000  1
  B  B5  1  0.00000000  0.50000000  0.75000000  1
  O  O6  1  0.28701900  0.16806600  0.13259800  1
  O  O7  1  0.71298100  0.83193400  0.13259800  1
  O  O8  1  0.33193400  0.78701900  0.36740200  1
  O  O9  1  0.66806600  0.21298100  0.36740200  1
  O  O10  1  0.78701900  0.66806600  0.63259800  1
  O  O11  1  0.21298100  0.33193400  0.63259800  1
  O  O12  1  0.83193400  0.28701900  0.86740200  1
  O  O13  1  0.16806600  0.71298100  0.86740200  1
