# generated using pymatgen
data_K2CuP
_symmetry_space_group_name_H-M   'P 1'
_cell_length_a   7.43186800
_cell_length_b   9.90842000
_cell_length_c   5.78554000
_cell_angle_alpha   90.00000000
_cell_angle_beta   90.00000000
_cell_angle_gamma   90.00000000
_symmetry_Int_Tables_number   1
_chemical_formula_structural   K2CuP
_chemical_formula_sum   'K8 Cu4 P4'
_cell_volume   426.03599678
_cell_formula_units_Z   4
loop_
 _symmetry_equiv_pos_site_id
 _symmetry_equiv_pos_as_xyz
  1  'x, y, z'
loop_
 _atom_site_type_symbol
 _atom_site_label
 _atom_site_symmetry_multiplicity
 _atom_site_fract_x
 _atom_site_fract_y
 _atom_site_fract_z
 _atom_site_occupancy
  K  K0  1  0.64458200  0.33070700  0.75000000  1
  K  K1  1  0.64458200  0.66929300  0.75000000  1
  K  K2  1  0.35541800  0.66929300  0.25000000  1
  K  K3  1  0.35541800  0.33070700  0.25000000  1
  K  K4  1  0.14458200  0.83070700  0.75000000  1
  K  K5  1  0.14458200  0.16929300  0.75000000  1
  K  K6  1  0.85541800  0.16929300  0.25000000  1
  K  K7  1  0.85541800  0.83070700  0.25000000  1
  Cu  Cu8  1  0.50000000  0.00000000  0.50000000  1
  Cu  Cu9  1  0.50000000  0.00000000  0.00000000  1
  Cu  Cu10  1  0.00000000  0.50000000  0.50000000  1
  Cu  Cu11  1  0.00000000  0.50000000  0.00000000  1
  P  P12  1  0.73210800  0.00000000  0.75000000  1
  P  P13  1  0.26789200  0.00000000  0.25000000  1
  P  P14  1  0.23210800  0.50000000  0.75000000  1
  P  P15  1  0.76789200  0.50000000  0.25000000  1
