# generated using pymatgen
data_TiZnH12(OF)6
_symmetry_space_group_name_H-M   'P 1'
_cell_length_a   9.38981277
_cell_length_b   9.38981277
_cell_length_c   9.56581979
_cell_angle_alpha   90.00000000
_cell_angle_beta   90.00000000
_cell_angle_gamma   120.00000000
_symmetry_Int_Tables_number   1
_chemical_formula_structural   TiZnH12(OF)6
_chemical_formula_sum   'Ti3 Zn3 H36 O18 F18'
_cell_volume   730.40996904
_cell_formula_units_Z   3
loop_
 _symmetry_equiv_pos_site_id
 _symmetry_equiv_pos_as_xyz
  1  'x, y, z'
loop_
 _atom_site_type_symbol
 _atom_site_label
 _atom_site_symmetry_multiplicity
 _atom_site_fract_x
 _atom_site_fract_y
 _atom_site_fract_z
 _atom_site_occupancy
  Ti  Ti0  1  0.00000000  0.00000000  0.50000000  1
  Ti  Ti1  1  0.66666667  0.33333333  0.83333333  1
  Ti  Ti2  1  0.33333333  0.66666667  0.16666667  1
  Zn  Zn3  1  0.00000000  0.00000000  0.00000000  1
  Zn  Zn4  1  0.66666667  0.33333333  0.33333333  1
  Zn  Zn5  1  0.33333333  0.66666667  0.66666667  1
  H  H6  1  0.16162067  0.96426733  0.77888333  1
  H  H7  1  0.37482233  0.21932867  0.46257667  1
  H  H8  1  0.03573267  0.19735333  0.77888333  1
  H  H9  1  0.21932867  0.84450633  0.53742333  1
  H  H10  1  0.15549367  0.37482233  0.53742333  1
  H  H11  1  0.80264667  0.83837933  0.77888333  1
  H  H12  1  0.19735333  0.16162067  0.22111667  1
  H  H13  1  0.84450633  0.62517767  0.46257667  1
  H  H14  1  0.78067133  0.15549367  0.46257667  1
  H  H15  1  0.96426733  0.80264667  0.22111667  1
  H  H16  1  0.62517767  0.78067133  0.53742333  1
  H  H17  1  0.83837933  0.03573267  0.22111667  1
  H  H18  1  0.82828733  0.29760067  0.11221667  1
  H  H19  1  0.04148900  0.55266200  0.79591000  1
  H  H20  1  0.70239933  0.53068667  0.11221667  1
  H  H21  1  0.88599533  0.17783967  0.87075667  1
  H  H22  1  0.82216033  0.70815567  0.87075667  1
  H  H23  1  0.46931333  0.17171267  0.11221667  1
  H  H24  1  0.86402000  0.49495400  0.55445000  1
  H  H25  1  0.51117300  0.95851100  0.79591000  1
  H  H26  1  0.44733800  0.48882700  0.79591000  1
  H  H27  1  0.63093400  0.13598000  0.55445000  1
  H  H28  1  0.29184433  0.11400467  0.87075667  1
  H  H29  1  0.50504600  0.36906600  0.55445000  1
  H  H30  1  0.49495400  0.63093400  0.44555000  1
  H  H31  1  0.70815567  0.88599533  0.12924333  1
  H  H32  1  0.36906600  0.86402000  0.44555000  1
  H  H33  1  0.55266200  0.51117300  0.20409000  1
  H  H34  1  0.48882700  0.04148900  0.20409000  1
  H  H35  1  0.13598000  0.50504600  0.44555000  1
  H  H36  1  0.53068667  0.82828733  0.88778333  1
  H  H37  1  0.17783967  0.29184433  0.12924333  1
  H  H38  1  0.11400467  0.82216033  0.12924333  1
  H  H39  1  0.29760067  0.46931333  0.88778333  1
  H  H40  1  0.95851100  0.44733800  0.20409000  1
  H  H41  1  0.17171267  0.70239933  0.88778333  1
  O  O42  1  0.47720267  0.32503833  0.45898033  1
  O  O43  1  0.32503833  0.84783567  0.54101967  1
  O  O44  1  0.15216433  0.47720267  0.54101967  1
  O  O45  1  0.84783567  0.52279733  0.45898033  1
  O  O46  1  0.67496167  0.15216433  0.45898033  1
  O  O47  1  0.52279733  0.67496167  0.54101967  1
  O  O48  1  0.14386933  0.65837167  0.79231367  1
  O  O49  1  0.99170500  0.18116900  0.87435300  1
  O  O50  1  0.81883100  0.81053600  0.87435300  1
  O  O51  1  0.51450233  0.85613067  0.79231367  1
  O  O52  1  0.34162833  0.48549767  0.79231367  1
  O  O53  1  0.18946400  0.00829500  0.87435300  1
  O  O54  1  0.81053600  0.99170500  0.12564700  1
  O  O55  1  0.65837167  0.51450233  0.20768633  1
  O  O56  1  0.48549767  0.14386933  0.20768633  1
  O  O57  1  0.18116900  0.18946400  0.12564700  1
  O  O58  1  0.00829500  0.81883100  0.12564700  1
  O  O59  1  0.85613067  0.34162833  0.20768633  1
  F  F60  1  0.14219633  0.18206967  0.61300967  1
  F  F61  1  0.03987333  0.85780367  0.61300967  1
  F  F62  1  0.18206967  0.03987333  0.38699033  1
  F  F63  1  0.81793033  0.96012667  0.61300967  1
  F  F64  1  0.96012667  0.14219633  0.38699033  1
  F  F65  1  0.85780367  0.81793033  0.38699033  1
  F  F66  1  0.80886300  0.51540300  0.94634300  1
  F  F67  1  0.70654000  0.19113700  0.94634300  1
  F  F68  1  0.84873633  0.37320667  0.72032367  1
  F  F69  1  0.48459700  0.29346000  0.94634300  1
  F  F70  1  0.62679333  0.47552967  0.72032367  1
  F  F71  1  0.52447033  0.15126367  0.72032367  1
  F  F72  1  0.47552967  0.84873633  0.27967633  1
  F  F73  1  0.37320667  0.52447033  0.27967633  1
  F  F74  1  0.51540300  0.70654000  0.05365700  1
  F  F75  1  0.15126367  0.62679333  0.27967633  1
  F  F76  1  0.29346000  0.80886300  0.05365700  1
  F  F77  1  0.19113700  0.48459700  0.05365700  1
