# generated using pymatgen
data_Li2ZnGeO4
_symmetry_space_group_name_H-M   'P 1'
_cell_length_a   5.12228300
_cell_length_b   5.50121600
_cell_length_c   8.21744505
_cell_angle_alpha   90.00000000
_cell_angle_beta   128.35214370
_cell_angle_gamma   90.00000000
_symmetry_Int_Tables_number   1
_chemical_formula_structural   Li2ZnGeO4
_chemical_formula_sum   'Li4 Zn2 Ge2 O8'
_cell_volume   181.59026296
_cell_formula_units_Z   2
loop_
 _symmetry_equiv_pos_site_id
 _symmetry_equiv_pos_as_xyz
  1  'x, y, z'
loop_
 _atom_site_type_symbol
 _atom_site_label
 _atom_site_symmetry_multiplicity
 _atom_site_fract_x
 _atom_site_fract_y
 _atom_site_fract_z
 _atom_site_occupancy
  Li  Li0  1  0.49845800  0.16275000  0.99986400  1
  Li  Li1  1  0.24714500  0.32824500  0.24821500  1
  Li  Li2  1  0.24714500  0.67175500  0.74821500  1
  Li  Li3  1  0.49845800  0.83725000  0.49986400  1
  Zn  Zn4  1  0.75237000  0.33264300  0.75205400  1
  Zn  Zn5  1  0.75237000  0.66735700  0.25205400  1
  Ge  Ge6  1  0.00360700  0.16967100  0.49961000  1
  Ge  Ge7  1  0.00360700  0.83032900  0.99961000  1
  O  O8  1  0.35268300  0.82326800  0.00046800  1
  O  O9  1  0.11885600  0.32118400  0.72801700  1
  O  O10  1  0.35268300  0.17673200  0.50046800  1
  O  O11  1  0.11885600  0.67881600  0.22801700  1
  O  O12  1  0.89040800  0.86320900  0.49890200  1
  O  O13  1  0.89040800  0.13679100  0.99890200  1
  O  O14  1  0.66247300  0.32194800  0.27186900  1
  O  O15  1  0.66247300  0.67805200  0.77186900  1
