# generated using pymatgen
data_K2As2Pd
_symmetry_space_group_name_H-M   'P 1'
_cell_length_a   6.57766400
_cell_length_b   14.62294800
_cell_length_c   6.09401300
_cell_angle_alpha   90.00000000
_cell_angle_beta   90.00000000
_cell_angle_gamma   90.00000000
_symmetry_Int_Tables_number   1
_chemical_formula_structural   K2As2Pd
_chemical_formula_sum   'K8 As8 Pd4'
_cell_volume   586.15165704
_cell_formula_units_Z   4
loop_
 _symmetry_equiv_pos_site_id
 _symmetry_equiv_pos_as_xyz
  1  'x, y, z'
loop_
 _atom_site_type_symbol
 _atom_site_label
 _atom_site_symmetry_multiplicity
 _atom_site_fract_x
 _atom_site_fract_y
 _atom_site_fract_z
 _atom_site_occupancy
  K  K0  1  0.00000000  0.42151100  0.25000000  1
  K  K1  1  0.50000000  0.07848900  0.75000000  1
  K  K2  1  0.50000000  0.29410900  0.25000000  1
  K  K3  1  0.00000000  0.20589100  0.75000000  1
  K  K4  1  0.50000000  0.92151100  0.25000000  1
  K  K5  1  0.00000000  0.57848900  0.75000000  1
  K  K6  1  0.00000000  0.79410900  0.25000000  1
  K  K7  1  0.50000000  0.70589100  0.75000000  1
  As  As8  1  0.31460200  0.38888200  0.75000000  1
  As  As9  1  0.18539800  0.11111800  0.25000000  1
  As  As10  1  0.81460200  0.11111800  0.25000000  1
  As  As11  1  0.68539800  0.38888200  0.75000000  1
  As  As12  1  0.81460200  0.88888200  0.75000000  1
  As  As13  1  0.68539800  0.61111800  0.25000000  1
  As  As14  1  0.31460200  0.61111800  0.25000000  1
  As  As15  1  0.18539800  0.88888200  0.75000000  1
  Pd  Pd16  1  0.00000000  0.00000000  0.50000000  1
  Pd  Pd17  1  0.00000000  0.00000000  0.00000000  1
  Pd  Pd18  1  0.50000000  0.50000000  0.50000000  1
  Pd  Pd19  1  0.50000000  0.50000000  0.00000000  1
