# generated using pymatgen
data_Ti2N2O
_symmetry_space_group_name_H-M   'P 1'
_cell_length_a   8.21568500
_cell_length_b   8.22729481
_cell_length_c   8.22798018
_cell_angle_alpha   109.51811993
_cell_angle_beta   109.42718382
_cell_angle_gamma   109.33969277
_symmetry_Int_Tables_number   1
_chemical_formula_structural   Ti2N2O
_chemical_formula_sum   'Ti16 N16 O8'
_cell_volume   428.80426993
_cell_formula_units_Z   8
loop_
 _symmetry_equiv_pos_site_id
 _symmetry_equiv_pos_as_xyz
  1  'x, y, z'
loop_
 _atom_site_type_symbol
 _atom_site_label
 _atom_site_symmetry_multiplicity
 _atom_site_fract_x
 _atom_site_fract_y
 _atom_site_fract_z
 _atom_site_occupancy
  Ti  Ti0  1  0.01351500  0.01125200  0.52215100  1
  Ti  Ti1  1  0.23649600  0.02988600  0.28486200  1
  Ti  Ti2  1  0.04403000  0.29422300  0.25348500  1
  Ti  Ti3  1  0.45844700  0.20797600  0.74939100  1
  Ti  Ti4  1  0.30530100  0.75828000  0.54299400  1
  Ti  Ti5  1  0.78598200  0.73215100  0.03405800  1
  Ti  Ti6  1  0.48314700  0.49679600  0.48698600  1
  Ti  Ti7  1  0.50959400  0.99409200  0.99533200  1
  Ti  Ti8  1  0.25382400  0.53862400  0.79776400  1
  Ti  Ti9  1  0.00159700  0.49794000  0.98821900  1
  Ti  Ti10  1  0.74842100  0.44912900  0.21010400  1
  Ti  Ti11  1  0.71737200  0.26067400  0.46050800  1
  Ti  Ti12  1  0.19845200  0.25219000  0.96454000  1
  Ti  Ti13  1  0.95298500  0.70615200  0.74566700  1
  Ti  Ti14  1  0.54603500  0.79670300  0.25044600  1
  Ti  Ti15  1  0.75388500  0.96577100  0.70141800  1
  N  N16  1  0.04889200  0.77769400  0.04183900  1
  N  N17  1  0.22490700  0.94844700  0.48629200  1
  N  N18  1  0.72081700  0.46111900  0.95084200  1
  N  N19  1  0.26526400  0.49332500  0.53869800  1
  N  N20  1  0.54707300  0.00850700  0.77745400  1
  N  N21  1  0.73592100  0.51128700  0.45733900  1
  N  N22  1  0.23564500  0.27526900  0.72692900  1
  N  N23  1  0.77230100  0.22306500  0.23220200  1
  N  N24  1  0.00718400  0.95562000  0.73248100  1
  N  N25  1  0.27554800  0.54552800  0.05431500  1
  N  N26  1  0.54341000  0.76943800  0.99277900  1
  N  N27  1  0.27540900  0.26410200  0.22520800  1
  N  N28  1  0.95898800  0.44925800  0.72391300  1
  N  N29  1  0.77464500  0.04891000  0.50906800  1
  N  N30  1  0.49044100  0.72496300  0.44991400  1
  N  N31  1  0.94895400  0.22716300  0.95998000  1
  O  O32  1  0.51025500  0.27292800  0.54895100  1
  O  O33  1  0.72343700  0.72612300  0.77401200  1
  O  O34  1  0.03475400  0.54775900  0.27702700  1
  O  O35  1  0.46117400  0.23473900  0.00981500  1
  O  O36  1  0.99270000  0.04472000  0.26921900  1
  O  O37  1  0.22584800  0.77692000  0.77336400  1
  O  O38  1  0.76598500  0.72773600  0.27231700  1
  O  O39  1  0.45136300  0.99354200  0.22811500  1
