# generated using pymatgen
data_YCuPbS3
_symmetry_space_group_name_H-M   'P 1'
_cell_length_a   3.92976400
_cell_length_b   13.05317800
_cell_length_c   10.27778900
_cell_angle_alpha   90.00000000
_cell_angle_beta   90.00000000
_cell_angle_gamma   90.00000000
_symmetry_Int_Tables_number   1
_chemical_formula_structural   YCuPbS3
_chemical_formula_sum   'Y4 Cu4 Pb4 S12'
_cell_volume   527.20852916
_cell_formula_units_Z   4
loop_
 _symmetry_equiv_pos_site_id
 _symmetry_equiv_pos_as_xyz
  1  'x, y, z'
loop_
 _atom_site_type_symbol
 _atom_site_label
 _atom_site_symmetry_multiplicity
 _atom_site_fract_x
 _atom_site_fract_y
 _atom_site_fract_z
 _atom_site_occupancy
  Y  Y0  1  0.50000000  0.00000000  0.00000000  1
  Y  Y1  1  0.50000000  0.00000000  0.50000000  1
  Y  Y2  1  0.00000000  0.50000000  0.00000000  1
  Y  Y3  1  0.00000000  0.50000000  0.50000000  1
  Cu  Cu4  1  0.00000000  0.03418800  0.75000000  1
  Cu  Cu5  1  0.50000000  0.46581200  0.25000000  1
  Cu  Cu6  1  0.50000000  0.53418800  0.75000000  1
  Cu  Cu7  1  0.00000000  0.96581200  0.25000000  1
  Pb  Pb8  1  0.50000000  0.24850700  0.75000000  1
  Pb  Pb9  1  0.00000000  0.25149300  0.25000000  1
  Pb  Pb10  1  0.00000000  0.74850700  0.75000000  1
  Pb  Pb11  1  0.50000000  0.75149300  0.25000000  1
  S  S12  1  0.50000000  0.07395100  0.25000000  1
  S  S13  1  0.00000000  0.42604900  0.75000000  1
  S  S14  1  0.50000000  0.36161800  0.43178500  1
  S  S15  1  0.50000000  0.36161800  0.06821500  1
  S  S16  1  0.00000000  0.13838200  0.56821500  1
  S  S17  1  0.00000000  0.13838200  0.93178500  1
  S  S18  1  0.00000000  0.57395100  0.25000000  1
  S  S19  1  0.50000000  0.92604900  0.75000000  1
  S  S20  1  0.00000000  0.86161800  0.43178500  1
  S  S21  1  0.00000000  0.86161800  0.06821500  1
  S  S22  1  0.50000000  0.63838200  0.56821500  1
  S  S23  1  0.50000000  0.63838200  0.93178500  1
