# generated using pymatgen
data_Mn6OF11
_symmetry_space_group_name_H-M   'P 1'
_cell_length_a   7.06945000
_cell_length_b   20.77170800
_cell_length_c   3.29100600
_cell_angle_alpha   90.00000000
_cell_angle_beta   90.00000000
_cell_angle_gamma   90.00000000
_symmetry_Int_Tables_number   1
_chemical_formula_structural   Mn6OF11
_chemical_formula_sum   'Mn12 O2 F22'
_cell_volume   483.26629881
_cell_formula_units_Z   2
loop_
 _symmetry_equiv_pos_site_id
 _symmetry_equiv_pos_as_xyz
  1  'x, y, z'
loop_
 _atom_site_type_symbol
 _atom_site_label
 _atom_site_symmetry_multiplicity
 _atom_site_fract_x
 _atom_site_fract_y
 _atom_site_fract_z
 _atom_site_occupancy
  Mn  Mn0  1  0.50000000  0.49894100  0.00000000  1
  Mn  Mn1  1  0.50000000  0.32893500  0.50000000  1
  Mn  Mn2  1  0.50000000  0.00644900  0.50000000  1
  Mn  Mn3  1  0.50000000  0.15676700  0.00000000  1
  Mn  Mn4  1  0.00000000  0.33754300  0.00000000  1
  Mn  Mn5  1  0.00000000  0.16812000  0.50000000  1
  Mn  Mn6  1  0.00000000  0.99894100  0.00000000  1
  Mn  Mn7  1  0.00000000  0.82893500  0.50000000  1
  Mn  Mn8  1  0.00000000  0.50644900  0.50000000  1
  Mn  Mn9  1  0.00000000  0.65676700  0.00000000  1
  Mn  Mn10  1  0.50000000  0.83754300  0.00000000  1
  Mn  Mn11  1  0.50000000  0.66812000  0.50000000  1
  O  O12  1  0.50000000  0.09942900  0.50000000  1
  O  O13  1  0.00000000  0.59942900  0.50000000  1
  F  F14  1  0.50000000  0.43270600  0.50000000  1
  F  F15  1  0.80592150  0.49983950  0.00000000  1
  F  F16  1  0.69590900  0.33297000  0.00000000  1
  F  F17  1  0.19407850  0.49983950  0.00000000  1
  F  F18  1  0.19378100  0.16885400  0.00000000  1
  F  F19  1  0.50000000  0.22552100  0.50000000  1
  F  F20  1  0.00000000  0.40584200  0.50000000  1
  F  F21  1  0.00000000  0.27224500  0.50000000  1
  F  F22  1  0.80621900  0.16885400  0.00000000  1
  F  F23  1  0.30409100  0.33297000  0.00000000  1
  F  F24  1  0.00000000  0.06456500  0.50000000  1
  F  F25  1  0.00000000  0.93270600  0.50000000  1
  F  F26  1  0.30592150  0.99983950  0.00000000  1
  F  F27  1  0.19590900  0.83297000  0.00000000  1
  F  F28  1  0.69407850  0.99983950  0.00000000  1
  F  F29  1  0.69378100  0.66885400  0.00000000  1
  F  F30  1  0.00000000  0.72552100  0.50000000  1
  F  F31  1  0.50000000  0.90584200  0.50000000  1
  F  F32  1  0.50000000  0.77224500  0.50000000  1
  F  F33  1  0.30621900  0.66885400  0.00000000  1
  F  F34  1  0.80409100  0.83297000  0.00000000  1
  F  F35  1  0.50000000  0.56456500  0.50000000  1
