# generated using pymatgen
data_KBiO3
_symmetry_space_group_name_H-M   'P 1'
_cell_length_a   14.20566000
_cell_length_b   10.28917000
_cell_length_c   10.18497380
_cell_angle_alpha   90.00000000
_cell_angle_beta   134.06860654
_cell_angle_gamma   90.00000000
_symmetry_Int_Tables_number   1
_chemical_formula_structural   KBiO3
_chemical_formula_sum   'K12 Bi12 O36'
_cell_volume   1069.62852695
_cell_formula_units_Z   12
loop_
 _symmetry_equiv_pos_site_id
 _symmetry_equiv_pos_as_xyz
  1  'x, y, z'
loop_
 _atom_site_type_symbol
 _atom_site_label
 _atom_site_symmetry_multiplicity
 _atom_site_fract_x
 _atom_site_fract_y
 _atom_site_fract_z
 _atom_site_occupancy
  K  K0  1  0.25000000  0.75000000  0.00000000  1
  K  K1  1  0.34613350  0.66587450  0.69109300  1
  K  K2  1  0.34613350  0.33412550  0.69109300  1
  K  K3  1  0.75000000  0.75000000  0.00000000  1
  K  K4  1  0.15386650  0.83412550  0.30890700  1
  K  K5  1  0.15386650  0.16587450  0.30890700  1
  K  K6  1  0.75000000  0.25000000  0.00000000  1
  K  K7  1  0.84613350  0.16587450  0.69109300  1
  K  K8  1  0.84613350  0.83412550  0.69109300  1
  K  K9  1  0.25000000  0.25000000  0.00000000  1
  K  K10  1  0.65386650  0.33412550  0.30890700  1
  K  K11  1  0.65386650  0.66587450  0.30890700  1
  Bi  Bi12  1  0.00000000  0.65886100  0.50000000  1
  Bi  Bi13  1  0.50006700  0.00000000  0.84026000  1
  Bi  Bi14  1  0.34101800  0.50000000  0.33910100  1
  Bi  Bi15  1  0.15898200  0.00000000  0.66089900  1
  Bi  Bi16  1  0.50000000  0.84113900  0.50000000  1
  Bi  Bi17  1  0.99993300  0.50000000  0.15974000  1
  Bi  Bi18  1  0.50000000  0.15886100  0.50000000  1
  Bi  Bi19  1  0.00006700  0.50000000  0.84026000  1
  Bi  Bi20  1  0.84101800  0.00000000  0.33910100  1
  Bi  Bi21  1  0.65898200  0.50000000  0.66089900  1
  Bi  Bi22  1  0.00000000  0.34113900  0.50000000  1
  Bi  Bi23  1  0.49993300  0.00000000  0.15974000  1
  O  O24  1  0.16430250  0.78745650  0.66008600  1
  O  O25  1  0.00537100  0.00000000  0.36452300  1
  O  O26  1  0.49462900  0.50000000  0.63547700  1
  O  O27  1  0.00000000  0.63959600  0.00000000  1
  O  O28  1  0.00000000  0.36040400  0.00000000  1
  O  O29  1  0.49736400  0.16456300  0.71078900  1
  O  O30  1  0.49736400  0.83543700  0.71078900  1
  O  O31  1  0.83569750  0.78745650  0.33991400  1
  O  O32  1  0.28588200  0.00000000  0.95075200  1
  O  O33  1  0.28720400  0.00000000  0.62006300  1
  O  O34  1  0.21279600  0.50000000  0.37993700  1
  O  O35  1  0.21411800  0.50000000  0.04924800  1
  O  O36  1  0.66430250  0.71254350  0.66008600  1
  O  O37  1  0.14001600  0.50000000  0.63606400  1
  O  O38  1  0.00263600  0.33543700  0.28921100  1
  O  O39  1  0.00263600  0.66456300  0.28921100  1
  O  O40  1  0.35998400  0.00000000  0.36393600  1
  O  O41  1  0.33569750  0.71254350  0.33991400  1
  O  O42  1  0.66430250  0.28745650  0.66008600  1
  O  O43  1  0.50537100  0.50000000  0.36452300  1
  O  O44  1  0.99462900  0.00000000  0.63547700  1
  O  O45  1  0.50000000  0.13959600  0.00000000  1
  O  O46  1  0.50000000  0.86040400  0.00000000  1
  O  O47  1  0.99736400  0.66456300  0.71078900  1
  O  O48  1  0.99736400  0.33543700  0.71078900  1
  O  O49  1  0.33569750  0.28745650  0.33991400  1
  O  O50  1  0.78588200  0.50000000  0.95075200  1
  O  O51  1  0.78720400  0.50000000  0.62006300  1
  O  O52  1  0.71279600  0.00000000  0.37993700  1
  O  O53  1  0.71411800  0.00000000  0.04924800  1
  O  O54  1  0.16430250  0.21254350  0.66008600  1
  O  O55  1  0.64001600  0.00000000  0.63606400  1
  O  O56  1  0.50263600  0.83543700  0.28921100  1
  O  O57  1  0.50263600  0.16456300  0.28921100  1
  O  O58  1  0.85998400  0.50000000  0.36393600  1
  O  O59  1  0.83569750  0.21254350  0.33991400  1
