# generated using pymatgen
data_Y(Bi5O8)3
_symmetry_space_group_name_H-M   'P 1'
_cell_length_a   7.93483300
_cell_length_b   7.76817400
_cell_length_c   11.36640858
_cell_angle_alpha   90.00000000
_cell_angle_beta   90.88685308
_cell_angle_gamma   90.00000000
_symmetry_Int_Tables_number   1
_chemical_formula_structural   Y(Bi5O8)3
_chemical_formula_sum   'Y1 Bi15 O24'
_cell_volume   700.53198914
_cell_formula_units_Z   1
loop_
 _symmetry_equiv_pos_site_id
 _symmetry_equiv_pos_as_xyz
  1  'x, y, z'
loop_
 _atom_site_type_symbol
 _atom_site_label
 _atom_site_symmetry_multiplicity
 _atom_site_fract_x
 _atom_site_fract_y
 _atom_site_fract_z
 _atom_site_occupancy
  Y  Y0  1  0.28915500  0.00000000  0.88557900  1
  Bi  Bi1  1  0.75391100  0.00000000  0.87469700  1
  Bi  Bi2  1  0.26026300  0.00000000  0.38009200  1
  Bi  Bi3  1  0.74075400  0.00000000  0.38024900  1
  Bi  Bi4  1  0.50639600  0.24365600  0.62918800  1
  Bi  Bi5  1  0.49584600  0.24541300  0.12749700  1
  Bi  Bi6  1  0.01076000  0.25175500  0.62405500  1
  Bi  Bi7  1  0.99532100  0.25422700  0.12082400  1
  Bi  Bi8  1  0.23116500  0.50000000  0.86518000  1
  Bi  Bi9  1  0.23796500  0.50000000  0.37129700  1
  Bi  Bi10  1  0.75699800  0.50000000  0.36955900  1
  Bi  Bi11  1  0.75502200  0.50000000  0.86943900  1
  Bi  Bi12  1  0.01076000  0.74824500  0.62405500  1
  Bi  Bi13  1  0.99532100  0.74577300  0.12082400  1
  Bi  Bi14  1  0.50639600  0.75634400  0.62918800  1
  Bi  Bi15  1  0.49584600  0.75458700  0.12749700  1
  O  O16  1  0.51663700  0.00000000  0.78737500  1
  O  O17  1  0.49881600  0.00000000  0.54167200  1
  O  O18  1  0.49862400  0.00000000  0.29214400  1
  O  O19  1  0.49590800  0.00000000  0.04342200  1
  O  O20  1  0.19521600  0.20353500  0.76151500  1
  O  O21  1  0.20165700  0.20629100  0.25009100  1
  O  O22  1  0.80320600  0.20854300  0.74933300  1
  O  O23  1  0.79498700  0.20441000  0.24950100  1
  O  O24  1  0.28856000  0.27612800  0.99554500  1
  O  O25  1  0.29371400  0.29516700  0.50381700  1
  O  O26  1  0.69672200  0.29629500  0.99879400  1
  O  O27  1  0.69806600  0.29501800  0.49815800  1
  O  O28  1  0.99880900  0.50000000  0.45560900  1
  O  O29  1  0.99703900  0.50000000  0.95696800  1
  O  O30  1  0.00863600  0.50000000  0.70572300  1
  O  O31  1  0.99940100  0.50000000  0.20436000  1
  O  O32  1  0.28856000  0.72387200  0.99554500  1
  O  O33  1  0.29371400  0.70483300  0.50381700  1
  O  O34  1  0.69672200  0.70370500  0.99879400  1
  O  O35  1  0.69806600  0.70498200  0.49815800  1
  O  O36  1  0.19521600  0.79646500  0.76151500  1
  O  O37  1  0.80320600  0.79145700  0.74933300  1
  O  O38  1  0.20165700  0.79370900  0.25009100  1
  O  O39  1  0.79498700  0.79559000  0.24950100  1
