# generated using pymatgen
data_K2GeAs2
_symmetry_space_group_name_H-M   'P 1'
_cell_length_a   6.67209600
_cell_length_b   7.09788200
_cell_length_c   13.52981200
_cell_angle_alpha   90.00000000
_cell_angle_beta   90.00000000
_cell_angle_gamma   90.00000000
_symmetry_Int_Tables_number   1
_chemical_formula_structural   K2GeAs2
_chemical_formula_sum   'K8 Ge4 As8'
_cell_volume   640.74145561
_cell_formula_units_Z   4
loop_
 _symmetry_equiv_pos_site_id
 _symmetry_equiv_pos_as_xyz
  1  'x, y, z'
loop_
 _atom_site_type_symbol
 _atom_site_label
 _atom_site_symmetry_multiplicity
 _atom_site_fract_x
 _atom_site_fract_y
 _atom_site_fract_z
 _atom_site_occupancy
  K  K0  1  0.00000000  0.66568600  0.35789100  1
  K  K1  1  0.50000000  0.83431400  0.14210900  1
  K  K2  1  0.00000000  0.16568600  0.14210900  1
  K  K3  1  0.50000000  0.33431400  0.35789100  1
  K  K4  1  0.50000000  0.16568600  0.85789100  1
  K  K5  1  0.00000000  0.33431400  0.64210900  1
  K  K6  1  0.50000000  0.66568600  0.64210900  1
  K  K7  1  0.00000000  0.83431400  0.85789100  1
  Ge  Ge8  1  0.75000000  0.50000000  0.00000000  1
  Ge  Ge9  1  0.25000000  0.50000000  0.00000000  1
  Ge  Ge10  1  0.25000000  0.00000000  0.50000000  1
  Ge  Ge11  1  0.75000000  0.00000000  0.50000000  1
  As  As12  1  0.00000000  0.67069050  0.10384150  1
  As  As13  1  0.50000000  0.82930950  0.39615850  1
  As  As14  1  0.00000000  0.17069050  0.39615850  1
  As  As15  1  0.50000000  0.32930950  0.10384150  1
  As  As16  1  0.50000000  0.17069050  0.60384150  1
  As  As17  1  0.00000000  0.32930950  0.89615850  1
  As  As18  1  0.50000000  0.67069050  0.89615850  1
  As  As19  1  0.00000000  0.82930950  0.60384150  1
