# generated using pymatgen
data_Si6BiO14
_symmetry_space_group_name_H-M   'P 1'
_cell_length_a   7.59056000
_cell_length_b   15.52064800
_cell_length_c   19.86816000
_cell_angle_alpha   90.00000000
_cell_angle_beta   90.00000000
_cell_angle_gamma   90.00000000
_symmetry_Int_Tables_number   1
_chemical_formula_structural   Si6BiO14
_chemical_formula_sum   'Si48 Bi8 O112'
_cell_volume   2340.67607322
_cell_formula_units_Z   8
loop_
 _symmetry_equiv_pos_site_id
 _symmetry_equiv_pos_as_xyz
  1  'x, y, z'
loop_
 _atom_site_type_symbol
 _atom_site_label
 _atom_site_symmetry_multiplicity
 _atom_site_fract_x
 _atom_site_fract_y
 _atom_site_fract_z
 _atom_site_occupancy
  Si  Si0  1  0.64338750  0.37987750  0.14850750  1
  Si  Si1  1  0.25394350  0.42568450  0.14645650  1
  Si  Si2  1  0.82575550  0.62933150  0.00000000  1
  Si  Si3  1  0.74605650  0.57431550  0.14645650  1
  Si  Si4  1  0.35661250  0.62012250  0.14850750  1
  Si  Si5  1  0.23869400  0.67066200  0.00000000  1
  Si  Si6  1  0.74605650  0.42568450  0.35354350  1
  Si  Si7  1  0.35661250  0.37987750  0.35149250  1
  Si  Si8  1  0.32575550  0.87066850  0.00000000  1
  Si  Si9  1  0.64338750  0.62012250  0.35149250  1
  Si  Si10  1  0.25394350  0.57431550  0.35354350  1
  Si  Si11  1  0.73869400  0.82933800  0.00000000  1
  Si  Si12  1  0.26130600  0.17066200  0.00000000  1
  Si  Si13  1  0.74605650  0.42568450  0.64645650  1
  Si  Si14  1  0.35661250  0.37987750  0.64850750  1
  Si  Si15  1  0.67424450  0.12933150  0.00000000  1
  Si  Si16  1  0.64338750  0.62012250  0.64850750  1
  Si  Si17  1  0.25394350  0.57431550  0.64645650  1
  Si  Si18  1  0.76130600  0.32933800  0.00000000  1
  Si  Si19  1  0.64338750  0.37987750  0.85149250  1
  Si  Si20  1  0.25394350  0.42568450  0.85354350  1
  Si  Si21  1  0.17424450  0.37066850  0.00000000  1
  Si  Si22  1  0.74605650  0.57431550  0.85354350  1
  Si  Si23  1  0.35661250  0.62012250  0.85149250  1
  Si  Si24  1  0.14338750  0.87987750  0.64850750  1
  Si  Si25  1  0.75394350  0.92568450  0.64645650  1
  Si  Si26  1  0.32575550  0.12933150  0.50000000  1
  Si  Si27  1  0.24605650  0.07431550  0.64645650  1
  Si  Si28  1  0.85661250  0.12012250  0.64850750  1
  Si  Si29  1  0.73869400  0.17066200  0.50000000  1
  Si  Si30  1  0.24605650  0.92568450  0.85354350  1
  Si  Si31  1  0.85661250  0.87987750  0.85149250  1
  Si  Si32  1  0.82575550  0.37066850  0.50000000  1
  Si  Si33  1  0.14338750  0.12012250  0.85149250  1
  Si  Si34  1  0.75394350  0.07431550  0.85354350  1
  Si  Si35  1  0.23869400  0.32933800  0.50000000  1
  Si  Si36  1  0.76130600  0.67066200  0.50000000  1
  Si  Si37  1  0.24605650  0.92568450  0.14645650  1
  Si  Si38  1  0.85661250  0.87987750  0.14850750  1
  Si  Si39  1  0.17424450  0.62933150  0.50000000  1
  Si  Si40  1  0.14338750  0.12012250  0.14850750  1
  Si  Si41  1  0.75394350  0.07431550  0.14645650  1
  Si  Si42  1  0.26130600  0.82933800  0.50000000  1
  Si  Si43  1  0.14338750  0.87987750  0.35149250  1
  Si  Si44  1  0.75394350  0.92568450  0.35354350  1
  Si  Si45  1  0.67424450  0.87066850  0.50000000  1
  Si  Si46  1  0.24605650  0.07431550  0.35354350  1
  Si  Si47  1  0.85661250  0.12012250  0.35149250  1
  Bi  Bi48  1  0.00000000  0.28854800  0.25000000  1
  Bi  Bi49  1  0.00000000  0.71145200  0.25000000  1
  Bi  Bi50  1  0.00000000  0.28854800  0.75000000  1
  Bi  Bi51  1  0.00000000  0.71145200  0.75000000  1
  Bi  Bi52  1  0.50000000  0.78854800  0.75000000  1
  Bi  Bi53  1  0.50000000  0.21145200  0.75000000  1
  Bi  Bi54  1  0.50000000  0.78854800  0.25000000  1
  Bi  Bi55  1  0.50000000  0.21145200  0.25000000  1
  O  O56  1  0.07837150  0.38348150  0.17865650  1
  O  O57  1  0.76029700  0.57487000  0.93528500  1
  O  O58  1  0.27175200  0.69740600  0.80393600  1
  O  O59  1  0.43280100  0.37185300  0.16769900  1
  O  O60  1  0.71758400  0.47417500  0.16928800  1
  O  O61  1  0.33650750  0.63643450  0.93220950  1
  O  O62  1  0.92162850  0.38348150  0.32134350  1
  O  O63  1  0.76029700  0.57487000  0.06471500  1
  O  O64  1  0.28241600  0.52582500  0.16928800  1
  O  O65  1  0.73762000  0.72481700  0.00000000  1
  O  O66  1  0.77175200  0.80259400  0.80393600  1
  O  O67  1  0.56719900  0.62814700  0.16769900  1
  O  O68  1  0.56719900  0.37185300  0.33230100  1
  O  O69  1  0.03841300  0.63617800  0.00000000  1
  O  O70  1  0.33650750  0.63643450  0.06779050  1
  O  O71  1  0.71758400  0.52582500  0.33071200  1
  O  O72  1  0.23762000  0.77518300  0.00000000  1
  O  O73  1  0.53841300  0.86382200  0.00000000  1
  O  O74  1  0.92162850  0.61651850  0.17865650  1
  O  O75  1  0.28241600  0.47417500  0.33071200  1
  O  O76  1  0.26029700  0.92513000  0.93528500  1
  O  O77  1  0.83650750  0.86356550  0.93220950  1
  O  O78  1  0.22824800  0.19740600  0.80393600  1
  O  O79  1  0.43280100  0.62814700  0.33230100  1
  O  O80  1  0.07837150  0.61651850  0.32134350  1
  O  O81  1  0.27175200  0.69740600  0.19606400  1
  O  O82  1  0.26029700  0.92513000  0.06471500  1
  O  O83  1  0.16349250  0.13643450  0.93220950  1
  O  O84  1  0.83650750  0.86356550  0.06779050  1
  O  O85  1  0.73970300  0.07487000  0.93528500  1
  O  O86  1  0.72824800  0.30259400  0.80393600  1
  O  O87  1  0.92162850  0.38348150  0.67865650  1
  O  O88  1  0.56719900  0.37185300  0.66769900  1
  O  O89  1  0.77175200  0.80259400  0.19606400  1
  O  O90  1  0.16349250  0.13643450  0.06779050  1
  O  O91  1  0.73970300  0.07487000  0.06471500  1
  O  O92  1  0.71758400  0.52582500  0.66928800  1
  O  O93  1  0.07837150  0.38348150  0.82134350  1
  O  O94  1  0.46158700  0.13617800  0.00000000  1
  O  O95  1  0.76238000  0.22481700  0.00000000  1
  O  O96  1  0.28241600  0.47417500  0.66928800  1
  O  O97  1  0.66349250  0.36356550  0.93220950  1
  O  O98  1  0.96158700  0.36382200  0.00000000  1
  O  O99  1  0.43280100  0.62814700  0.66769900  1
  O  O100  1  0.43280100  0.37185300  0.83230100  1
  O  O101  1  0.22824800  0.19740600  0.19606400  1
  O  O102  1  0.26238000  0.27518300  0.00000000  1
  O  O103  1  0.71758400  0.47417500  0.83071200  1
  O  O104  1  0.23970300  0.42513000  0.93528500  1
  O  O105  1  0.07837150  0.61651850  0.67865650  1
  O  O106  1  0.66349250  0.36356550  0.06779050  1
  O  O107  1  0.28241600  0.52582500  0.83071200  1
  O  O108  1  0.56719900  0.62814700  0.83230100  1
  O  O109  1  0.72824800  0.30259400  0.19606400  1
  O  O110  1  0.23970300  0.42513000  0.06471500  1
  O  O111  1  0.92162850  0.61651850  0.82134350  1
  O  O112  1  0.57837150  0.88348150  0.67865650  1
  O  O113  1  0.26029700  0.07487000  0.43528500  1
  O  O114  1  0.77175200  0.19740600  0.30393600  1
  O  O115  1  0.93280100  0.87185300  0.66769900  1
  O  O116  1  0.21758400  0.97417500  0.66928800  1
  O  O117  1  0.83650750  0.13643450  0.43220950  1
  O  O118  1  0.42162850  0.88348150  0.82134350  1
  O  O119  1  0.26029700  0.07487000  0.56471500  1
  O  O120  1  0.78241600  0.02582500  0.66928800  1
  O  O121  1  0.23762000  0.22481700  0.50000000  1
  O  O122  1  0.27175200  0.30259400  0.30393600  1
  O  O123  1  0.06719900  0.12814700  0.66769900  1
  O  O124  1  0.06719900  0.87185300  0.83230100  1
  O  O125  1  0.53841300  0.13617800  0.50000000  1
  O  O126  1  0.83650750  0.13643450  0.56779050  1
  O  O127  1  0.21758400  0.02582500  0.83071200  1
  O  O128  1  0.73762000  0.27518300  0.50000000  1
  O  O129  1  0.03841300  0.36382200  0.50000000  1
  O  O130  1  0.42162850  0.11651850  0.67865650  1
  O  O131  1  0.78241600  0.97417500  0.83071200  1
  O  O132  1  0.76029700  0.42513000  0.43528500  1
  O  O133  1  0.33650750  0.36356550  0.43220950  1
  O  O134  1  0.72824800  0.69740600  0.30393600  1
  O  O135  1  0.93280100  0.12814700  0.83230100  1
  O  O136  1  0.57837150  0.11651850  0.82134350  1
  O  O137  1  0.77175200  0.19740600  0.69606400  1
  O  O138  1  0.76029700  0.42513000  0.56471500  1
  O  O139  1  0.66349250  0.63643450  0.43220950  1
  O  O140  1  0.33650750  0.36356550  0.56779050  1
  O  O141  1  0.23970300  0.57487000  0.43528500  1
  O  O142  1  0.22824800  0.80259400  0.30393600  1
  O  O143  1  0.42162850  0.88348150  0.17865650  1
  O  O144  1  0.06719900  0.87185300  0.16769900  1
  O  O145  1  0.27175200  0.30259400  0.69606400  1
  O  O146  1  0.66349250  0.63643450  0.56779050  1
  O  O147  1  0.23970300  0.57487000  0.56471500  1
  O  O148  1  0.21758400  0.02582500  0.16928800  1
  O  O149  1  0.57837150  0.88348150  0.32134350  1
  O  O150  1  0.96158700  0.63617800  0.50000000  1
  O  O151  1  0.26238000  0.72481700  0.50000000  1
  O  O152  1  0.78241600  0.97417500  0.16928800  1
  O  O153  1  0.16349250  0.86356550  0.43220950  1
  O  O154  1  0.46158700  0.86382200  0.50000000  1
  O  O155  1  0.93280100  0.12814700  0.16769900  1
  O  O156  1  0.93280100  0.87185300  0.33230100  1
  O  O157  1  0.72824800  0.69740600  0.69606400  1
  O  O158  1  0.76238000  0.77518300  0.50000000  1
  O  O159  1  0.21758400  0.97417500  0.33071200  1
  O  O160  1  0.73970300  0.92513000  0.43528500  1
  O  O161  1  0.57837150  0.11651850  0.17865650  1
  O  O162  1  0.16349250  0.86356550  0.56779050  1
  O  O163  1  0.78241600  0.02582500  0.33071200  1
  O  O164  1  0.06719900  0.12814700  0.33230100  1
  O  O165  1  0.22824800  0.80259400  0.69606400  1
  O  O166  1  0.73970300  0.92513000  0.56471500  1
  O  O167  1  0.42162850  0.11651850  0.32134350  1
