# generated using pymatgen
data_LiV2(PO4)3
_symmetry_space_group_name_H-M   'P 1'
_cell_length_a   8.33888175
_cell_length_b   8.34909651
_cell_length_c   8.87455755
_cell_angle_alpha   117.63968208
_cell_angle_beta   90.25585060
_cell_angle_gamma   119.90199785
_symmetry_Int_Tables_number   1
_chemical_formula_structural   LiV2(PO4)3
_chemical_formula_sum   'Li2 V4 P6 O24'
_cell_volume   451.58420781
_cell_formula_units_Z   2
loop_
 _symmetry_equiv_pos_site_id
 _symmetry_equiv_pos_as_xyz
  1  'x, y, z'
loop_
 _atom_site_type_symbol
 _atom_site_label
 _atom_site_symmetry_multiplicity
 _atom_site_fract_x
 _atom_site_fract_y
 _atom_site_fract_z
 _atom_site_occupancy
  Li  Li0  1  0.39815900  0.07871200  0.86175300  1
  Li  Li1  1  0.60184100  0.92128800  0.13824700  1
  V  V2  1  0.71265100  0.36049700  0.94270500  1
  V  V3  1  0.71757700  0.85300200  0.42937600  1
  V  V4  1  0.28242300  0.14699800  0.57062400  1
  V  V5  1  0.28734900  0.63950300  0.05729500  1
  P  P6  1  0.50080500  0.46707000  0.75177000  1
  P  P7  1  0.22187800  0.75310200  0.74546100  1
  P  P8  1  0.78422400  0.03390500  0.75110100  1
  P  P9  1  0.21577600  0.96609500  0.24889900  1
  P  P10  1  0.77812200  0.24689800  0.25453900  1
  P  P11  1  0.49919500  0.53293000  0.24823000  1
  O  O12  1  0.32665200  0.49502300  0.89415300  1
  O  O13  1  0.66181600  0.48736700  0.80295900  1
  O  O14  1  0.02139800  0.54391700  0.80078200  1
  O  O15  1  0.26974800  0.78897700  0.89760100  1
  O  O16  1  0.61358700  0.84563600  0.91690100  1
  O  O17  1  0.63010600  0.62103200  0.57104300  1
  O  O18  1  0.17232200  0.90235400  0.72065900  1
  O  O19  1  0.42007800  0.79002700  0.57200400  1
  O  O20  1  0.71672200  0.17989300  0.79446900  1
  O  O21  1  0.00784500  0.11638200  0.72880100  1
  O  O22  1  0.79572400  0.99696900  0.58029300  1
  O  O23  1  0.37918600  0.26157600  0.73729800  1
  O  O24  1  0.62081400  0.73842400  0.26270200  1
  O  O25  1  0.20427600  0.00303100  0.41970700  1
  O  O26  1  0.99215500  0.88361800  0.27119900  1
  O  O27  1  0.28327800  0.82010700  0.20553100  1
  O  O28  1  0.57992200  0.20997300  0.42799600  1
  O  O29  1  0.82767800  0.09764600  0.27934100  1
  O  O30  1  0.36989400  0.37896800  0.42895700  1
  O  O31  1  0.38641300  0.15436400  0.08309900  1
  O  O32  1  0.73025200  0.21102300  0.10239900  1
  O  O33  1  0.97860200  0.45608300  0.19921800  1
  O  O34  1  0.33818400  0.51263300  0.19704100  1
  O  O35  1  0.67334800  0.50497700  0.10584700  1
