# generated using pymatgen
data_Ca2PN3
_symmetry_space_group_name_H-M   'P 1'
_cell_length_a   5.22429800
_cell_length_b   10.38763600
_cell_length_c   11.31695300
_cell_angle_alpha   90.00000000
_cell_angle_beta   90.00000000
_cell_angle_gamma   90.00000000
_symmetry_Int_Tables_number   1
_chemical_formula_structural   Ca2PN3
_chemical_formula_sum   'Ca16 P8 N24'
_cell_volume   614.14960477
_cell_formula_units_Z   8
loop_
 _symmetry_equiv_pos_site_id
 _symmetry_equiv_pos_as_xyz
  1  'x, y, z'
loop_
 _atom_site_type_symbol
 _atom_site_label
 _atom_site_symmetry_multiplicity
 _atom_site_fract_x
 _atom_site_fract_y
 _atom_site_fract_z
 _atom_site_occupancy
  Ca  Ca0  1  0.50000000  0.63764500  0.57405200  1
  Ca  Ca1  1  0.00000000  0.63764500  0.92594800  1
  Ca  Ca2  1  0.50000000  0.86235500  0.07405200  1
  Ca  Ca3  1  0.00000000  0.86235500  0.42594800  1
  Ca  Ca4  1  0.50000000  0.55235300  0.14199200  1
  Ca  Ca5  1  0.00000000  0.94764700  0.85800800  1
  Ca  Ca6  1  0.50000000  0.94764700  0.64199200  1
  Ca  Ca7  1  0.00000000  0.55235300  0.35800800  1
  Ca  Ca8  1  0.00000000  0.13764500  0.57405200  1
  Ca  Ca9  1  0.50000000  0.13764500  0.92594800  1
  Ca  Ca10  1  0.00000000  0.36235500  0.07405200  1
  Ca  Ca11  1  0.50000000  0.36235500  0.42594800  1
  Ca  Ca12  1  0.00000000  0.05235300  0.14199200  1
  Ca  Ca13  1  0.50000000  0.44764700  0.85800800  1
  Ca  Ca14  1  0.00000000  0.44764700  0.64199200  1
  Ca  Ca15  1  0.50000000  0.05235300  0.35800800  1
  P  P16  1  0.00000000  0.74435700  0.16531700  1
  P  P17  1  0.00000000  0.75564300  0.66531700  1
  P  P18  1  0.50000000  0.75564300  0.83468300  1
  P  P19  1  0.50000000  0.74435700  0.33468300  1
  P  P20  1  0.50000000  0.24435700  0.16531700  1
  P  P21  1  0.50000000  0.25564300  0.66531700  1
  P  P22  1  0.00000000  0.25564300  0.83468300  1
  P  P23  1  0.00000000  0.24435700  0.33468300  1
  N  N24  1  0.25000000  0.78883600  0.25000000  1
  N  N25  1  0.75000000  0.71116400  0.75000000  1
  N  N26  1  0.25000000  0.71116400  0.75000000  1
  N  N27  1  0.75000000  0.78883600  0.25000000  1
  N  N28  1  0.50000000  0.58892800  0.35955200  1
  N  N29  1  0.00000000  0.91107200  0.64044800  1
  N  N30  1  0.50000000  0.91107200  0.85955200  1
  N  N31  1  0.00000000  0.83984100  0.05068300  1
  N  N32  1  0.50000000  0.83984100  0.44931700  1
  N  N33  1  0.00000000  0.66015900  0.55068300  1
  N  N34  1  0.50000000  0.66015900  0.94931700  1
  N  N35  1  0.00000000  0.58892800  0.14044800  1
  N  N36  1  0.75000000  0.28883600  0.25000000  1
  N  N37  1  0.25000000  0.21116400  0.75000000  1
  N  N38  1  0.75000000  0.21116400  0.75000000  1
  N  N39  1  0.25000000  0.28883600  0.25000000  1
  N  N40  1  0.00000000  0.08892800  0.35955200  1
  N  N41  1  0.50000000  0.41107200  0.64044800  1
  N  N42  1  0.00000000  0.41107200  0.85955200  1
  N  N43  1  0.50000000  0.33984100  0.05068300  1
  N  N44  1  0.00000000  0.33984100  0.44931700  1
  N  N45  1  0.50000000  0.16015900  0.55068300  1
  N  N46  1  0.00000000  0.16015900  0.94931700  1
  N  N47  1  0.50000000  0.08892800  0.14044800  1
