# generated using pymatgen
data_Mn6OF11
_symmetry_space_group_name_H-M   'P 1'
_cell_length_a   4.96430500
_cell_length_b   16.22087700
_cell_length_c   7.65471671
_cell_angle_alpha   90.00000000
_cell_angle_beta   129.71806131
_cell_angle_gamma   90.00000000
_symmetry_Int_Tables_number   1
_chemical_formula_structural   Mn6OF11
_chemical_formula_sum   'Mn12 O2 F22'
_cell_volume   474.13295897
_cell_formula_units_Z   2
loop_
 _symmetry_equiv_pos_site_id
 _symmetry_equiv_pos_as_xyz
  1  'x, y, z'
loop_
 _atom_site_type_symbol
 _atom_site_label
 _atom_site_symmetry_multiplicity
 _atom_site_fract_x
 _atom_site_fract_y
 _atom_site_fract_z
 _atom_site_occupancy
  Mn  Mn0  1  0.84647100  0.33155500  0.85633000  1
  Mn  Mn1  1  0.15959100  0.50404700  0.17070700  1
  Mn  Mn2  1  0.83172200  0.67090100  0.81291200  1
  Mn  Mn3  1  0.82524100  0.99894000  0.83076500  1
  Mn  Mn4  1  0.15346900  0.17188000  0.16716400  1
  Mn  Mn5  1  0.17551500  0.83207000  0.16975500  1
  Mn  Mn6  1  0.17551500  0.16793000  0.66975500  1
  Mn  Mn7  1  0.15346900  0.82812000  0.66716400  1
  Mn  Mn8  1  0.15959100  0.49595300  0.67070700  1
  Mn  Mn9  1  0.84647100  0.66844500  0.35633000  1
  Mn  Mn10  1  0.83172200  0.32909900  0.31291200  1
  Mn  Mn11  1  0.82524100  0.00106000  0.33076500  1
  O  O12  1  0.88055000  0.28186700  0.08953200  1
  O  O13  1  0.88055000  0.71813300  0.58953200  1
  F  F14  1  0.66612000  0.44278400  0.89025200  1
  F  F15  1  0.65986700  0.10833600  0.89433200  1
  F  F16  1  0.67260900  0.77686100  0.88536800  1
  F  F17  1  0.87502400  0.61549800  0.12573000  1
  F  F18  1  0.88141400  0.94196700  0.11029000  1
  F  F19  1  0.34010400  0.60608600  0.60831000  1
  F  F20  1  0.10910200  0.44327800  0.39188100  1
  F  F21  1  0.34852100  0.27991800  0.60787600  1
  F  F22  1  0.13102400  0.10935900  0.39731600  1
  F  F23  1  0.33009700  0.93880200  0.60864200  1
  F  F24  1  0.11355600  0.77151200  0.38283600  1
  F  F25  1  0.66612000  0.55721600  0.39025200  1
  F  F26  1  0.87502400  0.38450200  0.62573000  1
  F  F27  1  0.67260900  0.22313900  0.38536800  1
  F  F28  1  0.65986700  0.89166400  0.39433200  1
  F  F29  1  0.88141400  0.05803300  0.61029000  1
  F  F30  1  0.10910200  0.55672200  0.89188100  1
  F  F31  1  0.11355600  0.22848800  0.88283600  1
  F  F32  1  0.34010400  0.39391400  0.10831000  1
  F  F33  1  0.34852100  0.72008200  0.10787600  1
  F  F34  1  0.13102400  0.89064100  0.89731600  1
  F  F35  1  0.33009700  0.06119800  0.10864200  1
