# generated using pymatgen
data_LiMnCr2O6
_symmetry_space_group_name_H-M   'P 1'
_cell_length_a   12.89133600
_cell_length_b   2.93380000
_cell_length_c   5.98262370
_cell_angle_alpha   90.00000000
_cell_angle_beta   103.42745451
_cell_angle_gamma   90.00000000
_symmetry_Int_Tables_number   1
_chemical_formula_structural   LiMnCr2O6
_chemical_formula_sum   'Li2 Mn2 Cr4 O12'
_cell_volume   220.08137085
_cell_formula_units_Z   2
loop_
 _symmetry_equiv_pos_site_id
 _symmetry_equiv_pos_as_xyz
  1  'x, y, z'
loop_
 _atom_site_type_symbol
 _atom_site_label
 _atom_site_symmetry_multiplicity
 _atom_site_fract_x
 _atom_site_fract_y
 _atom_site_fract_z
 _atom_site_occupancy
  Li  Li0  1  0.33402300  0.00000000  0.16448500  1
  Li  Li1  1  0.83402300  0.50000000  0.16448500  1
  Mn  Mn2  1  0.16299200  0.50000000  0.34523600  1
  Mn  Mn3  1  0.66299200  0.00000000  0.34523600  1
  Cr  Cr4  1  0.33248700  0.00000000  0.66843600  1
  Cr  Cr5  1  0.00765200  0.00000000  0.98663300  1
  Cr  Cr6  1  0.83248700  0.50000000  0.66843600  1
  Cr  Cr7  1  0.50765200  0.50000000  0.98663300  1
  O  O8  1  0.17241900  0.00000000  0.55865400  1
  O  O9  1  0.35006700  0.50000000  0.90769400  1
  O  O10  1  0.16265200  0.00000000  0.12514100  1
  O  O11  1  0.31716000  0.50000000  0.42990200  1
  O  O12  1  0.49300600  0.00000000  0.77796300  1
  O  O13  1  0.00902800  0.50000000  0.21216500  1
  O  O14  1  0.67241900  0.50000000  0.55865400  1
  O  O15  1  0.85006700  0.00000000  0.90769400  1
  O  O16  1  0.66265200  0.50000000  0.12514100  1
  O  O17  1  0.81716000  0.00000000  0.42990200  1
  O  O18  1  0.99300600  0.50000000  0.77796300  1
  O  O19  1  0.50902800  0.00000000  0.21216500  1
