# generated using pymatgen
data_K3P2AuSe8
_symmetry_space_group_name_H-M   'P 1'
_cell_length_a   7.22918000
_cell_length_b   12.76707200
_cell_length_c   18.90989052
_cell_angle_alpha   90.00000000
_cell_angle_beta   96.34489857
_cell_angle_gamma   90.00000000
_symmetry_Int_Tables_number   1
_chemical_formula_structural   K3P2AuSe8
_chemical_formula_sum   'K12 P8 Au4 Se32'
_cell_volume   1734.60653460
_cell_formula_units_Z   4
loop_
 _symmetry_equiv_pos_site_id
 _symmetry_equiv_pos_as_xyz
  1  'x, y, z'
loop_
 _atom_site_type_symbol
 _atom_site_label
 _atom_site_symmetry_multiplicity
 _atom_site_fract_x
 _atom_site_fract_y
 _atom_site_fract_z
 _atom_site_occupancy
  K  K0  1  0.43026400  0.93099800  0.89435100  1
  K  K1  1  0.93026400  0.56900200  0.39435100  1
  K  K2  1  0.78676600  0.89314100  0.24573500  1
  K  K3  1  0.28676600  0.60685900  0.74573500  1
  K  K4  1  0.30661400  0.72614900  0.10171300  1
  K  K5  1  0.80661400  0.77385100  0.60171300  1
  K  K6  1  0.93026400  0.43099800  0.89435100  1
  K  K7  1  0.43026400  0.06900200  0.39435100  1
  K  K8  1  0.28676600  0.39314100  0.24573500  1
  K  K9  1  0.78676600  0.10685900  0.74573500  1
  K  K10  1  0.80661400  0.22614900  0.10171300  1
  K  K11  1  0.30661400  0.27385100  0.60171300  1
  P  P12  1  0.86872400  0.56366300  0.12365400  1
  P  P13  1  0.36872400  0.93633700  0.62365400  1
  P  P14  1  0.94795950  0.73209850  0.87559800  1
  P  P15  1  0.44795950  0.76790150  0.37559800  1
  P  P16  1  0.36872400  0.06366300  0.12365400  1
  P  P17  1  0.86872400  0.43633700  0.62365400  1
  P  P18  1  0.44795950  0.23209850  0.87559800  1
  P  P19  1  0.94795950  0.26790150  0.37559800  1
  Au  Au20  1  0.99902950  0.95184950  0.00071100  1
  Au  Au21  1  0.49902950  0.54815050  0.50071100  1
  Au  Au22  1  0.49902950  0.45184950  0.00071100  1
  Au  Au23  1  0.99902950  0.04815050  0.50071100  1
  Se  Se24  1  0.33364900  0.84150200  0.27630800  1
  Se  Se25  1  0.83364900  0.65849800  0.77630800  1
  Se  Se26  1  0.07597450  0.99808450  0.12655400  1
  Se  Se27  1  0.57597450  0.50191550  0.62655400  1
  Se  Se28  1  0.99026200  0.64428600  0.21949100  1
  Se  Se29  1  0.49026200  0.85571400  0.71949100  1
  Se  Se30  1  0.55597850  0.95442550  0.07905200  1
  Se  Se31  1  0.05597850  0.54557450  0.57905200  1
  Se  Se32  1  0.82227450  0.71953450  0.06067600  1
  Se  Se33  1  0.32227450  0.78046550  0.56067600  1
  Se  Se34  1  0.71854750  0.66885350  0.94154500  1
  Se  Se35  1  0.21854750  0.83114650  0.44154500  1
  Se  Se36  1  0.22919100  0.68431000  0.91602200  1
  Se  Se37  1  0.72919100  0.81569000  0.41602200  1
  Se  Se38  1  0.91315800  0.90967400  0.87489000  1
  Se  Se39  1  0.41315800  0.59032600  0.37489000  1
  Se  Se40  1  0.83364900  0.34150200  0.27630800  1
  Se  Se41  1  0.33364900  0.15849800  0.77630800  1
  Se  Se42  1  0.57597450  0.49808450  0.12655400  1
  Se  Se43  1  0.07597450  0.00191550  0.62655400  1
  Se  Se44  1  0.49026200  0.14428600  0.21949100  1
  Se  Se45  1  0.99026200  0.35571400  0.71949100  1
  Se  Se46  1  0.05597850  0.45442550  0.07905200  1
  Se  Se47  1  0.55597850  0.04557450  0.57905200  1
  Se  Se48  1  0.32227450  0.21953450  0.06067600  1
  Se  Se49  1  0.82227450  0.28046550  0.56067600  1
  Se  Se50  1  0.21854750  0.16885350  0.94154500  1
  Se  Se51  1  0.71854750  0.33114650  0.44154500  1
  Se  Se52  1  0.72919100  0.18431000  0.91602200  1
  Se  Se53  1  0.22919100  0.31569000  0.41602200  1
  Se  Se54  1  0.41315800  0.40967400  0.87489000  1
  Se  Se55  1  0.91315800  0.09032600  0.37489000  1
