# generated using pymatgen
data_Li2FeOF3
_symmetry_space_group_name_H-M   'P 1'
_cell_length_a   5.96418200
_cell_length_b   5.96418200
_cell_length_c   8.58639000
_cell_angle_alpha   90.00000000
_cell_angle_beta   90.00000000
_cell_angle_gamma   90.00000000
_symmetry_Int_Tables_number   1
_chemical_formula_structural   Li2FeOF3
_chemical_formula_sum   'Li8 Fe4 O4 F12'
_cell_volume   305.43048817
_cell_formula_units_Z   4
loop_
 _symmetry_equiv_pos_site_id
 _symmetry_equiv_pos_as_xyz
  1  'x, y, z'
loop_
 _atom_site_type_symbol
 _atom_site_label
 _atom_site_symmetry_multiplicity
 _atom_site_fract_x
 _atom_site_fract_y
 _atom_site_fract_z
 _atom_site_occupancy
  Li  Li0  1  0.73445500  0.75383000  0.37280600  1
  Li  Li1  1  0.75383000  0.26554500  0.12280600  1
  Li  Li2  1  0.24617000  0.73445500  0.62280600  1
  Li  Li3  1  0.26554500  0.24617000  0.87280600  1
  Li  Li4  1  0.75854600  0.99875600  0.74501900  1
  Li  Li5  1  0.00124400  0.75854600  0.99501900  1
  Li  Li6  1  0.99875600  0.24145400  0.49501900  1
  Li  Li7  1  0.24145400  0.00124400  0.24501900  1
  Fe  Fe8  1  0.74976900  0.48221900  0.76852800  1
  Fe  Fe9  1  0.25023100  0.51778100  0.26852800  1
  Fe  Fe10  1  0.51778100  0.74976900  0.01852800  1
  Fe  Fe11  1  0.48221900  0.25023100  0.51852800  1
  O  O12  1  0.52736000  0.26038500  0.73473400  1
  O  O13  1  0.73961500  0.52736000  0.98473400  1
  O  O14  1  0.26038500  0.47264000  0.48473400  1
  O  O15  1  0.47264000  0.73961500  0.23473400  1
  F  F16  1  0.51428300  0.74933800  0.76136700  1
  F  F17  1  0.74933800  0.48571700  0.51136700  1
  F  F18  1  0.25066200  0.51428300  0.01136700  1
  F  F19  1  0.48571700  0.25066200  0.26136700  1
  F  F20  1  0.74666000  0.99182200  0.99521300  1
  F  F21  1  0.99182200  0.25334000  0.74521300  1
  F  F22  1  0.00817800  0.74666000  0.24521300  1
  F  F23  1  0.25334000  0.00817800  0.49521300  1
  F  F24  1  0.73757200  0.02609800  0.49735600  1
  F  F25  1  0.97390200  0.73757200  0.74735600  1
  F  F26  1  0.02609800  0.26242800  0.24735600  1
  F  F27  1  0.26242800  0.97390200  0.99735600  1
