# generated using pymatgen
data_Li4Cr2Fe5O12
_symmetry_space_group_name_H-M   'P 1'
_cell_length_a   5.12417100
_cell_length_b   9.07970200
_cell_length_c   9.84929542
_cell_angle_alpha   90.00000000
_cell_angle_beta   101.00238134
_cell_angle_gamma   90.00000000
_symmetry_Int_Tables_number   1
_chemical_formula_structural   Li4Cr2Fe5O12
_chemical_formula_sum   'Li8 Cr4 Fe10 O24'
_cell_volume   449.82484650
_cell_formula_units_Z   2
loop_
 _symmetry_equiv_pos_site_id
 _symmetry_equiv_pos_as_xyz
  1  'x, y, z'
loop_
 _atom_site_type_symbol
 _atom_site_label
 _atom_site_symmetry_multiplicity
 _atom_site_fract_x
 _atom_site_fract_y
 _atom_site_fract_z
 _atom_site_occupancy
  Li  Li0  1  0.00542200  0.08738700  0.25707400  1
  Li  Li1  1  0.49129600  0.07896200  0.74227700  1
  Li  Li2  1  0.76002400  0.41686400  0.49474100  1
  Li  Li3  1  0.50314100  0.41631300  0.74108100  1
  Li  Li4  1  0.99457800  0.58738700  0.74292600  1
  Li  Li5  1  0.50870400  0.57896200  0.25772300  1
  Li  Li6  1  0.23997600  0.91686400  0.50525900  1
  Li  Li7  1  0.49685900  0.91631300  0.25891900  1
  Cr  Cr8  1  0.24771700  0.25159000  0.49623000  1
  Cr  Cr9  1  0.74934300  0.25271000  0.00184100  1
  Cr  Cr10  1  0.25065700  0.75271000  0.99815900  1
  Cr  Cr11  1  0.75228300  0.75159000  0.50377000  1
  Fe  Fe12  1  0.24812500  0.07798500  0.99507200  1
  Fe  Fe13  1  0.74936400  0.07558000  0.50468300  1
  Fe  Fe14  1  0.99458500  0.25129900  0.74274400  1
  Fe  Fe15  1  0.24054800  0.42003900  0.00241400  1
  Fe  Fe16  1  0.51192100  0.26037600  0.25858400  1
  Fe  Fe17  1  0.25063600  0.57558000  0.49531700  1
  Fe  Fe18  1  0.75187500  0.57798500  0.00492800  1
  Fe  Fe19  1  0.00541500  0.75129900  0.25725600  1
  Fe  Fe20  1  0.48807900  0.76037600  0.74141600  1
  Fe  Fe21  1  0.75945200  0.92003900  0.99758600  1
  O  O22  1  0.11581900  0.10324500  0.61783600  1
  O  O23  1  0.87996500  0.10368600  0.88175200  1
  O  O24  1  0.86837900  0.23348900  0.38181600  1
  O  O25  1  0.13474400  0.23810100  0.11529300  1
  O  O26  1  0.38672100  0.09952400  0.37640700  1
  O  O27  1  0.61972600  0.09597600  0.11792300  1
  O  O28  1  0.13135600  0.40778100  0.62002400  1
  O  O29  1  0.62789900  0.24049500  0.62264300  1
  O  O30  1  0.85888700  0.40974600  0.87682600  1
  O  O31  1  0.36938300  0.24252800  0.87793700  1
  O  O32  1  0.62454400  0.40967100  0.12067800  1
  O  O33  1  0.38773000  0.40940400  0.38319500  1
  O  O34  1  0.88418100  0.60324500  0.38216400  1
  O  O35  1  0.12003500  0.60368600  0.11824800  1
  O  O36  1  0.13162100  0.73348900  0.61818400  1
  O  O37  1  0.61327900  0.59952400  0.62359300  1
  O  O38  1  0.86525600  0.73810100  0.88470700  1
  O  O39  1  0.38027400  0.59597600  0.88207700  1
  O  O40  1  0.37210100  0.74049500  0.37735700  1
  O  O41  1  0.14111300  0.90974600  0.12317400  1
  O  O42  1  0.86864400  0.90778100  0.37997600  1
  O  O43  1  0.63061700  0.74252800  0.12206300  1
  O  O44  1  0.61227000  0.90940400  0.61680500  1
  O  O45  1  0.37545600  0.90967100  0.87932200  1
