# generated using pymatgen
data_ReTeSCl4
_symmetry_space_group_name_H-M   'P 1'
_cell_length_a   11.14935400
_cell_length_b   11.14935400
_cell_length_c   13.57208200
_cell_angle_alpha   90.00000000
_cell_angle_beta   90.00000000
_cell_angle_gamma   90.00000000
_symmetry_Int_Tables_number   1
_chemical_formula_structural   ReTeSCl4
_chemical_formula_sum   'Re8 Te8 S8 Cl32'
_cell_volume   1687.11965341
_cell_formula_units_Z   8
loop_
 _symmetry_equiv_pos_site_id
 _symmetry_equiv_pos_as_xyz
  1  'x, y, z'
loop_
 _atom_site_type_symbol
 _atom_site_label
 _atom_site_symmetry_multiplicity
 _atom_site_fract_x
 _atom_site_fract_y
 _atom_site_fract_z
 _atom_site_occupancy
  Re  Re0  1  0.97182700  0.11981700  0.57346050  1
  Re  Re1  1  0.52817300  0.38018300  0.07346050  1
  Re  Re2  1  0.38018300  0.47182700  0.92653950  1
  Re  Re3  1  0.11981700  0.02817300  0.42653950  1
  Re  Re4  1  0.47182700  0.61981700  0.07346050  1
  Re  Re5  1  0.02817300  0.88018300  0.57346050  1
  Re  Re6  1  0.88018300  0.97182700  0.42653950  1
  Re  Re7  1  0.61981700  0.52817300  0.92653950  1
  Te  Te8  1  0.80582850  0.29224550  0.63169500  1
  Te  Te9  1  0.69417150  0.20775450  0.13169500  1
  Te  Te10  1  0.20775450  0.30582850  0.86830500  1
  Te  Te11  1  0.29224550  0.19417150  0.36830500  1
  Te  Te12  1  0.30582850  0.79224550  0.13169500  1
  Te  Te13  1  0.19417150  0.70775450  0.63169500  1
  Te  Te14  1  0.70775450  0.80582850  0.36830500  1
  Te  Te15  1  0.79224550  0.69417150  0.86830500  1
  S  S16  1  0.33573850  0.46182850  0.09417100  1
  S  S17  1  0.16426150  0.03817150  0.59417100  1
  S  S18  1  0.53817150  0.33573850  0.90582900  1
  S  S19  1  0.96182850  0.16426150  0.40582900  1
  S  S20  1  0.83573850  0.96182850  0.59417100  1
  S  S21  1  0.66426150  0.53817150  0.09417100  1
  S  S22  1  0.03817150  0.83573850  0.40582900  1
  S  S23  1  0.46182850  0.66426150  0.90582900  1
  Cl  Cl24  1  0.12714750  0.68839650  0.17707000  1
  Cl  Cl25  1  0.87285250  0.31160350  0.17707000  1
  Cl  Cl26  1  0.81160350  0.62714750  0.32293000  1
  Cl  Cl27  1  0.18839650  0.37285250  0.32293000  1
  Cl  Cl28  1  0.94851550  0.14492650  0.75357700  1
  Cl  Cl29  1  0.55148450  0.35507350  0.25357700  1
  Cl  Cl30  1  0.35507350  0.44851550  0.74642300  1
  Cl  Cl31  1  0.14492650  0.05148450  0.24642300  1
  Cl  Cl32  1  0.05763900  0.32242100  0.59078050  1
  Cl  Cl33  1  0.44236100  0.17757900  0.09078050  1
  Cl  Cl34  1  0.17757900  0.55763900  0.90921950  1
  Cl  Cl35  1  0.32242100  0.94236100  0.40921950  1
  Cl  Cl36  1  0.72679850  0.38863750  0.48942500  1
  Cl  Cl37  1  0.77320150  0.11136250  0.98942500  1
  Cl  Cl38  1  0.11136250  0.22679850  0.01057500  1
  Cl  Cl39  1  0.38863750  0.27320150  0.51057500  1
  Cl  Cl40  1  0.62714750  0.18839650  0.67707000  1
  Cl  Cl41  1  0.37285250  0.81160350  0.67707000  1
  Cl  Cl42  1  0.31160350  0.12714750  0.82293000  1
  Cl  Cl43  1  0.68839650  0.87285250  0.82293000  1
  Cl  Cl44  1  0.44851550  0.64492650  0.25357700  1
  Cl  Cl45  1  0.05148450  0.85507350  0.75357700  1
  Cl  Cl46  1  0.85507350  0.94851550  0.24642300  1
  Cl  Cl47  1  0.64492650  0.55148450  0.74642300  1
  Cl  Cl48  1  0.55763900  0.82242100  0.09078050  1
  Cl  Cl49  1  0.94236100  0.67757900  0.59078050  1
  Cl  Cl50  1  0.67757900  0.05763900  0.40921950  1
  Cl  Cl51  1  0.82242100  0.44236100  0.90921950  1
  Cl  Cl52  1  0.22679850  0.88863750  0.98942500  1
  Cl  Cl53  1  0.27320150  0.61136250  0.48942500  1
  Cl  Cl54  1  0.61136250  0.72679850  0.51057500  1
  Cl  Cl55  1  0.88863750  0.77320150  0.01057500  1
