# generated using pymatgen
data_Sr(P3Pt2)2
_symmetry_space_group_name_H-M   'P 1'
_cell_length_a   8.34900200
_cell_length_b   8.06468800
_cell_length_c   11.55507892
_cell_angle_alpha   90.00000000
_cell_angle_beta   90.64312511
_cell_angle_gamma   90.00000000
_symmetry_Int_Tables_number   1
_chemical_formula_structural   Sr(P3Pt2)2
_chemical_formula_sum   'Sr4 P24 Pt16'
_cell_volume   777.97867354
_cell_formula_units_Z   4
loop_
 _symmetry_equiv_pos_site_id
 _symmetry_equiv_pos_as_xyz
  1  'x, y, z'
loop_
 _atom_site_type_symbol
 _atom_site_label
 _atom_site_symmetry_multiplicity
 _atom_site_fract_x
 _atom_site_fract_y
 _atom_site_fract_z
 _atom_site_occupancy
  Sr  Sr0  1  0.50000000  0.89710800  0.75000000  1
  Sr  Sr1  1  0.50000000  0.10289200  0.25000000  1
  Sr  Sr2  1  0.00000000  0.39710800  0.75000000  1
  Sr  Sr3  1  0.00000000  0.60289200  0.25000000  1
  P  P4  1  0.89042850  0.02171750  0.30520800  1
  P  P5  1  0.10957150  0.02171750  0.19479200  1
  P  P6  1  0.10957150  0.97828250  0.69479200  1
  P  P7  1  0.89042850  0.97828250  0.80520800  1
  P  P8  1  0.24977700  0.13449600  0.94739400  1
  P  P9  1  0.75022300  0.13449600  0.55260600  1
  P  P10  1  0.75022300  0.86550400  0.05260600  1
  P  P11  1  0.24977700  0.86550400  0.44739400  1
  P  P12  1  0.36254200  0.75386700  0.05104400  1
  P  P13  1  0.63745800  0.75386700  0.44895600  1
  P  P14  1  0.36254200  0.24613300  0.55104400  1
  P  P15  1  0.63745800  0.24613300  0.94895600  1
  P  P16  1  0.39042850  0.52171750  0.30520800  1
  P  P17  1  0.60957150  0.52171750  0.19479200  1
  P  P18  1  0.60957150  0.47828250  0.69479200  1
  P  P19  1  0.39042850  0.47828250  0.80520800  1
  P  P20  1  0.74977700  0.63449600  0.94739400  1
  P  P21  1  0.25022300  0.63449600  0.55260600  1
  P  P22  1  0.25022300  0.36550400  0.05260600  1
  P  P23  1  0.74977700  0.36550400  0.44739400  1
  P  P24  1  0.86254200  0.25386700  0.05104400  1
  P  P25  1  0.13745800  0.25386700  0.44895600  1
  P  P26  1  0.86254200  0.74613300  0.55104400  1
  P  P27  1  0.13745800  0.74613300  0.94895600  1
  Pt  Pt28  1  0.28688900  0.20598200  0.74985800  1
  Pt  Pt29  1  0.71311100  0.20598200  0.75014200  1
  Pt  Pt30  1  0.50000000  0.00000000  0.50000000  1
  Pt  Pt31  1  0.50000000  0.00000000  0.00000000  1
  Pt  Pt32  1  0.00000000  0.00000000  0.50000000  1
  Pt  Pt33  1  0.00000000  0.00000000  0.00000000  1
  Pt  Pt34  1  0.28688900  0.79401800  0.24985800  1
  Pt  Pt35  1  0.71311100  0.79401800  0.25014200  1
  Pt  Pt36  1  0.78688900  0.70598200  0.74985800  1
  Pt  Pt37  1  0.21311100  0.70598200  0.75014200  1
  Pt  Pt38  1  0.00000000  0.50000000  0.50000000  1
  Pt  Pt39  1  0.00000000  0.50000000  0.00000000  1
  Pt  Pt40  1  0.50000000  0.50000000  0.50000000  1
  Pt  Pt41  1  0.50000000  0.50000000  0.00000000  1
  Pt  Pt42  1  0.78688900  0.29401800  0.24985800  1
  Pt  Pt43  1  0.21311100  0.29401800  0.25014200  1
