# generated using pymatgen
data_AgNO3
_symmetry_space_group_name_H-M   'P 1'
_cell_length_a   5.18185996
_cell_length_b   5.18185996
_cell_length_c   8.63624239
_cell_angle_alpha   90.00000000
_cell_angle_beta   90.00000000
_cell_angle_gamma   120.00000000
_symmetry_Int_Tables_number   1
_chemical_formula_structural   AgNO3
_chemical_formula_sum   'Ag3 N3 O9'
_cell_volume   200.82917239
_cell_formula_units_Z   3
loop_
 _symmetry_equiv_pos_site_id
 _symmetry_equiv_pos_as_xyz
  1  'x, y, z'
loop_
 _atom_site_type_symbol
 _atom_site_label
 _atom_site_symmetry_multiplicity
 _atom_site_fract_x
 _atom_site_fract_y
 _atom_site_fract_z
 _atom_site_occupancy
  Ag  Ag0  1  0.33333333  0.66666667  0.66470667  1
  Ag  Ag1  1  0.00000000  0.00000000  0.99804000  1
  Ag  Ag2  1  0.66666667  0.33333333  0.33137333  1
  N  N3  1  0.33333333  0.66666667  0.24078367  1
  N  N4  1  0.00000000  0.00000000  0.57411700  1
  N  N5  1  0.66666667  0.33333333  0.90745033  1
  O  O6  1  0.19180000  0.80820000  0.24308100  1
  O  O7  1  0.19180000  0.38360000  0.24308100  1
  O  O8  1  0.61640000  0.80820000  0.24308100  1
  O  O9  1  0.85846667  0.14153333  0.57641433  1
  O  O10  1  0.85846667  0.71693333  0.57641433  1
  O  O11  1  0.28306667  0.14153333  0.57641433  1
  O  O12  1  0.52513333  0.47486667  0.90974767  1
  O  O13  1  0.52513333  0.05026667  0.90974767  1
  O  O14  1  0.94973333  0.47486667  0.90974767  1
