# generated using pymatgen
data_SF6
_symmetry_space_group_name_H-M   'P 1'
_cell_length_a   5.98970400
_cell_length_b   5.98970400
_cell_length_c   5.98970400
_cell_angle_alpha   90.00000000
_cell_angle_beta   90.00000000
_cell_angle_gamma   90.00000000
_symmetry_Int_Tables_number   1
_chemical_formula_structural   SF6
_chemical_formula_sum   'S2 F12'
_cell_volume   214.88993905
_cell_formula_units_Z   2
loop_
 _symmetry_equiv_pos_site_id
 _symmetry_equiv_pos_as_xyz
  1  'x, y, z'
loop_
 _atom_site_type_symbol
 _atom_site_label
 _atom_site_symmetry_multiplicity
 _atom_site_fract_x
 _atom_site_fract_y
 _atom_site_fract_z
 _atom_site_occupancy
  S  S0  1  0.00000000  0.00000000  0.00000000  1
  S  S1  1  0.50000000  0.50000000  0.50000000  1
  F  F2  1  0.00000000  0.73337000  0.00000000  1
  F  F3  1  0.00000000  0.26663000  0.00000000  1
  F  F4  1  0.26663000  0.00000000  0.00000000  1
  F  F5  1  0.73337000  0.00000000  0.00000000  1
  F  F6  1  0.00000000  0.00000000  0.26663000  1
  F  F7  1  0.00000000  0.00000000  0.73337000  1
  F  F8  1  0.50000000  0.23337000  0.50000000  1
  F  F9  1  0.50000000  0.76663000  0.50000000  1
  F  F10  1  0.76663000  0.50000000  0.50000000  1
  F  F11  1  0.23337000  0.50000000  0.50000000  1
  F  F12  1  0.50000000  0.50000000  0.76663000  1
  F  F13  1  0.50000000  0.50000000  0.23337000  1
