# generated using pymatgen
data_Li3V2P4(HO8)2
_symmetry_space_group_name_H-M   'P 1'
_cell_length_a   7.87551407
_cell_length_b   9.43296665
_cell_length_c   9.43360937
_cell_angle_alpha   117.80308879
_cell_angle_beta   100.99184641
_cell_angle_gamma   101.17057786
_symmetry_Int_Tables_number   1
_chemical_formula_structural   Li3V2P4(HO8)2
_chemical_formula_sum   'Li6 V4 P8 H4 O32'
_cell_volume   575.39397913
_cell_formula_units_Z   2
loop_
 _symmetry_equiv_pos_site_id
 _symmetry_equiv_pos_as_xyz
  1  'x, y, z'
loop_
 _atom_site_type_symbol
 _atom_site_label
 _atom_site_symmetry_multiplicity
 _atom_site_fract_x
 _atom_site_fract_y
 _atom_site_fract_z
 _atom_site_occupancy
  Li  Li0  1  0.35324315  0.63100440  0.90619661  1
  Li  Li1  1  0.65374757  0.36692282  0.58680418  1
  Li  Li2  1  0.85205737  0.87122969  0.79215064  1
  Li  Li3  1  0.15555167  0.13499481  0.20837569  1
  Li  Li4  1  0.34541291  0.63659659  0.40688826  1
  Li  Li5  1  0.84405794  0.86424034  0.29732693  1
  V  V6  1  0.48819926  0.00239719  0.74557383  1
  V  V7  1  0.99735480  0.49916249  0.00013407  1
  V  V8  1  0.00381379  0.49438254  0.50643206  1
  V  V9  1  0.50067179  0.00598659  0.24805507  1
  P  P10  1  0.26931814  0.34747762  0.39327183  1
  P  P11  1  0.26542819  0.35143809  0.89111977  1
  P  P12  1  0.22969539  0.85003565  0.50491179  1
  P  P13  1  0.23304140  0.84873654  0.00773675  1
  P  P14  1  0.76021953  0.15199986  0.49139982  1
  P  P15  1  0.76437927  0.15758329  0.98604088  1
  P  P16  1  0.73355002  0.65233259  0.60722994  1
  P  P17  1  0.73972474  0.65475105  0.10554613  1
  H  H18  1  0.49716570  0.50601272  0.74719155  1
  H  H19  1  0.51690656  0.50672083  0.23514508  1
  H  H20  1  0.98235179  0.00879918  0.50984570  1
  H  H21  1  0.99307188  0.01057012  0.00099661  1
  O  O22  1  0.05468620  0.93841774  0.93840235  1
  O  O23  1  0.35472616  0.94776215  0.88699327  1
  O  O24  1  0.64502367  0.17569070  0.81010313  1
  O  O25  1  0.68751385  0.82072788  0.93972718  1
  O  O26  1  0.15374662  0.45620729  0.91823699  1
  O  O27  1  0.16442951  0.44960857  0.41755791  1
  O  O28  1  0.31870311  0.17194657  0.54947542  1
  O  O29  1  0.34989275  0.82892521  0.68503615  1
  O  O30  1  0.43689713  0.45725907  0.86245920  1
  O  O31  1  0.44764652  0.44360444  0.37028313  1
  O  O32  1  0.65239881  0.04604929  0.62325629  1
  O  O33  1  0.80800289  0.31828809  0.48714519  1
  O  O34  1  0.82132012  0.32835853  0.97368476  1
  O  O35  1  0.05089056  0.94335369  0.43226278  1
  O  O36  1  0.14057146  0.32950603  0.74002632  1
  O  O37  1  0.14510761  0.32786379  0.23528872  1
  O  O38  1  0.85132914  0.67411793  0.76476601  1
  O  O39  1  0.85161480  0.67391848  0.26257394  1
  O  O40  1  0.93714495  0.04692542  0.57443731  1
  O  O41  1  0.19083368  0.68022275  0.51273448  1
  O  O42  1  0.19095876  0.67884477  0.01165492  1
  O  O43  1  0.33968240  0.95705033  0.38203751  1
  O  O44  1  0.55202765  0.55758519  0.62922272  1
  O  O45  1  0.55658779  0.56088598  0.12409257  1
  O  O46  1  0.64410310  0.16982674  0.31865538  1
  O  O47  1  0.68789761  0.81962257  0.44357817  1
  O  O48  1  0.83852319  0.54429845  0.58950753  1
  O  O49  1  0.85785026  0.55455888  0.08561530  1
  O  O50  1  0.30942303  0.18496457  0.05489101  1
  O  O51  1  0.35367011  0.82823183  0.18368315  1
  O  O52  1  0.66516093  0.05049637  0.11590926  1
  O  O53  1  0.94653177  0.05915770  0.06133976  1
