# generated using pymatgen
data_Yb4Br6O
_symmetry_space_group_name_H-M   'P 1'
_cell_length_a   9.46799429
_cell_length_b   9.46799429
_cell_length_c   7.18668900
_cell_angle_alpha   90.00000000
_cell_angle_beta   90.00000000
_cell_angle_gamma   120.00000000
_symmetry_Int_Tables_number   1
_chemical_formula_structural   Yb4Br6O
_chemical_formula_sum   'Yb8 Br12 O2'
_cell_volume   557.92453215
_cell_formula_units_Z   2
loop_
 _symmetry_equiv_pos_site_id
 _symmetry_equiv_pos_as_xyz
  1  'x, y, z'
loop_
 _atom_site_type_symbol
 _atom_site_label
 _atom_site_symmetry_multiplicity
 _atom_site_fract_x
 _atom_site_fract_y
 _atom_site_fract_z
 _atom_site_occupancy
  Yb  Yb0  1  0.79643500  0.59287000  0.50285700  1
  Yb  Yb1  1  0.66666667  0.33333333  0.90993000  1
  Yb  Yb2  1  0.40713000  0.20356500  0.50285700  1
  Yb  Yb3  1  0.79643500  0.20356500  0.50285700  1
  Yb  Yb4  1  0.20356500  0.79643500  0.00285700  1
  Yb  Yb5  1  0.33333333  0.66666667  0.40993000  1
  Yb  Yb6  1  0.59287000  0.79643500  0.00285700  1
  Yb  Yb7  1  0.20356500  0.40713000  0.00285700  1
  Br  Br8  1  0.86213000  0.72426000  0.88434800  1
  Br  Br9  1  0.53532200  0.46467800  0.20570700  1
  Br  Br10  1  0.27574000  0.13787000  0.88434800  1
  Br  Br11  1  0.92935600  0.46467800  0.20570700  1
  Br  Br12  1  0.53532200  0.07064400  0.20570700  1
  Br  Br13  1  0.13787000  0.86213000  0.38434800  1
  Br  Br14  1  0.86213000  0.13787000  0.88434800  1
  Br  Br15  1  0.46467800  0.92935600  0.70570700  1
  Br  Br16  1  0.72426000  0.86213000  0.38434800  1
  Br  Br17  1  0.07064400  0.53532200  0.70570700  1
  Br  Br18  1  0.46467800  0.53532200  0.70570700  1
  Br  Br19  1  0.13787000  0.27574000  0.38434800  1
  O  O20  1  0.66666667  0.33333333  0.60064800  1
  O  O21  1  0.33333333  0.66666667  0.10064800  1
