# generated using pymatgen
data_Li2Fe4OF8
_symmetry_space_group_name_H-M   'P 1'
_cell_length_a   9.38216200
_cell_length_b   5.27260000
_cell_length_c   14.35168058
_cell_angle_alpha   90.00000000
_cell_angle_beta   91.28434886
_cell_angle_gamma   90.00000000
_symmetry_Int_Tables_number   1
_chemical_formula_structural   Li2Fe4OF8
_chemical_formula_sum   'Li8 Fe16 O4 F32'
_cell_volume   709.77613199
_cell_formula_units_Z   4
loop_
 _symmetry_equiv_pos_site_id
 _symmetry_equiv_pos_as_xyz
  1  'x, y, z'
loop_
 _atom_site_type_symbol
 _atom_site_label
 _atom_site_symmetry_multiplicity
 _atom_site_fract_x
 _atom_site_fract_y
 _atom_site_fract_z
 _atom_site_occupancy
  Li  Li0  1  0.99899800  0.99896300  0.15365300  1
  Li  Li1  1  0.99899800  0.00103700  0.65365300  1
  Li  Li2  1  0.50468750  0.51603650  0.36031900  1
  Li  Li3  1  0.50468750  0.48396350  0.86031900  1
  Li  Li4  1  0.49899800  0.49896300  0.15365300  1
  Li  Li5  1  0.49899800  0.50103700  0.65365300  1
  Li  Li6  1  0.00468750  0.01603650  0.36031900  1
  Li  Li7  1  0.00468750  0.98396350  0.86031900  1
  Fe  Fe8  1  0.67172550  0.98111450  0.31754500  1
  Fe  Fe9  1  0.66103000  0.00876300  0.01492100  1
  Fe  Fe10  1  0.67172550  0.01888550  0.81754500  1
  Fe  Fe11  1  0.66103000  0.99123700  0.51492100  1
  Fe  Fe12  1  0.83080700  0.49615400  0.18567200  1
  Fe  Fe13  1  0.83080700  0.50384600  0.68567200  1
  Fe  Fe14  1  0.82390800  0.48402700  0.97380200  1
  Fe  Fe15  1  0.82390800  0.51597300  0.47380200  1
  Fe  Fe16  1  0.17172550  0.48111450  0.31754500  1
  Fe  Fe17  1  0.16103000  0.50876300  0.01492100  1
  Fe  Fe18  1  0.17172550  0.51888550  0.81754500  1
  Fe  Fe19  1  0.16103000  0.49123700  0.51492100  1
  Fe  Fe20  1  0.33080700  0.99615400  0.18567200  1
  Fe  Fe21  1  0.33080700  0.00384600  0.68567200  1
  Fe  Fe22  1  0.32390800  0.98402700  0.97380200  1
  Fe  Fe23  1  0.32390800  0.01597300  0.47380200  1
  O  O24  1  0.66734000  0.28600700  0.91816900  1
  O  O25  1  0.66734000  0.71399300  0.41816900  1
  O  O26  1  0.16734000  0.78600700  0.91816900  1
  O  O27  1  0.16734000  0.21399300  0.41816900  1
  F  F28  1  0.50034950  0.20359050  0.74766400  1
  F  F29  1  0.51241550  0.17025350  0.41569100  1
  F  F30  1  0.50034950  0.79640950  0.24766400  1
  F  F31  1  0.51241550  0.82974650  0.91569100  1
  F  F32  1  0.65737650  0.67881350  0.74434200  1
  F  F33  1  0.82843500  0.15773100  0.41462800  1
  F  F34  1  0.67645100  0.66827100  0.08581200  1
  F  F35  1  0.65737650  0.32118650  0.24434200  1
  F  F36  1  0.82843500  0.84226900  0.91462800  1
  F  F37  1  0.67645100  0.33172900  0.58581200  1
  F  F38  1  0.85462100  0.84321300  0.24648500  1
  F  F39  1  0.83565400  0.81103100  0.58879100  1
  F  F40  1  0.97293150  0.64696250  0.08244300  1
  F  F41  1  0.83565400  0.18896900  0.08879100  1
  F  F42  1  0.85462100  0.15678700  0.74648500  1
  F  F43  1  0.97293150  0.35303750  0.58244300  1
  F  F44  1  0.00034950  0.70359050  0.74766400  1
  F  F45  1  0.01241550  0.67025350  0.41569100  1
  F  F46  1  0.00034950  0.29640950  0.24766400  1
  F  F47  1  0.01241550  0.32974650  0.91569100  1
  F  F48  1  0.15737650  0.17881350  0.74434200  1
  F  F49  1  0.32843500  0.65773100  0.41462800  1
  F  F50  1  0.17645100  0.16827100  0.08581200  1
  F  F51  1  0.15737650  0.82118650  0.24434200  1
  F  F52  1  0.32843500  0.34226900  0.91462800  1
  F  F53  1  0.17645100  0.83172900  0.58581200  1
  F  F54  1  0.35462100  0.34321300  0.24648500  1
  F  F55  1  0.33565400  0.31103100  0.58879100  1
  F  F56  1  0.47293150  0.14696250  0.08244300  1
  F  F57  1  0.33565400  0.68896900  0.08879100  1
  F  F58  1  0.35462100  0.65678700  0.74648500  1
  F  F59  1  0.47293150  0.85303750  0.58244300  1
