# generated using pymatgen
data_NaCr4O12
_symmetry_space_group_name_H-M   'P 1'
_cell_length_a   8.78329400
_cell_length_b   8.78329400
_cell_length_c   29.62331800
_cell_angle_alpha   90.00000000
_cell_angle_beta   90.00000000
_cell_angle_gamma   90.00000000
_symmetry_Int_Tables_number   1
_chemical_formula_structural   NaCr4O12
_chemical_formula_sum   'Na8 Cr32 O96'
_cell_volume   2285.32799966
_cell_formula_units_Z   8
loop_
 _symmetry_equiv_pos_site_id
 _symmetry_equiv_pos_as_xyz
  1  'x, y, z'
loop_
 _atom_site_type_symbol
 _atom_site_label
 _atom_site_symmetry_multiplicity
 _atom_site_fract_x
 _atom_site_fract_y
 _atom_site_fract_z
 _atom_site_occupancy
  Na  Na0  1  0.50000000  0.00000000  0.00000000  1
  Na  Na1  1  0.00000000  0.00000000  0.25000000  1
  Na  Na2  1  0.00000000  0.50000000  0.00000000  1
  Na  Na3  1  0.50000000  0.50000000  0.25000000  1
  Na  Na4  1  0.00000000  0.50000000  0.50000000  1
  Na  Na5  1  0.50000000  0.50000000  0.75000000  1
  Na  Na6  1  0.50000000  0.00000000  0.50000000  1
  Na  Na7  1  0.00000000  0.00000000  0.75000000  1
  Cr  Cr8  1  0.64306950  0.86365150  0.17370850  1
  Cr  Cr9  1  0.86365150  0.85693050  0.42370850  1
  Cr  Cr10  1  0.86365150  0.64306950  0.32629150  1
  Cr  Cr11  1  0.85693050  0.36365150  0.17370850  1
  Cr  Cr12  1  0.64306950  0.36365150  0.07629150  1
  Cr  Cr13  1  0.14306950  0.63634850  0.17370850  1
  Cr  Cr14  1  0.13634850  0.35693050  0.32629150  1
  Cr  Cr15  1  0.13634850  0.14306950  0.42370850  1
  Cr  Cr16  1  0.36365150  0.85693050  0.32629150  1
  Cr  Cr17  1  0.36365150  0.64306950  0.42370850  1
  Cr  Cr18  1  0.85693050  0.86365150  0.07629150  1
  Cr  Cr19  1  0.35693050  0.13634850  0.17370850  1
  Cr  Cr20  1  0.14306950  0.13634850  0.07629150  1
  Cr  Cr21  1  0.63634850  0.35693050  0.42370850  1
  Cr  Cr22  1  0.63634850  0.14306950  0.32629150  1
  Cr  Cr23  1  0.35693050  0.63634850  0.07629150  1
  Cr  Cr24  1  0.14306950  0.36365150  0.67370850  1
  Cr  Cr25  1  0.36365150  0.35693050  0.92370850  1
  Cr  Cr26  1  0.36365150  0.14306950  0.82629150  1
  Cr  Cr27  1  0.35693050  0.86365150  0.67370850  1
  Cr  Cr28  1  0.14306950  0.86365150  0.57629150  1
  Cr  Cr29  1  0.64306950  0.13634850  0.67370850  1
  Cr  Cr30  1  0.63634850  0.85693050  0.82629150  1
  Cr  Cr31  1  0.63634850  0.64306950  0.92370850  1
  Cr  Cr32  1  0.86365150  0.35693050  0.82629150  1
  Cr  Cr33  1  0.86365150  0.14306950  0.92370850  1
  Cr  Cr34  1  0.35693050  0.36365150  0.57629150  1
  Cr  Cr35  1  0.85693050  0.63634850  0.67370850  1
  Cr  Cr36  1  0.64306950  0.63634850  0.57629150  1
  Cr  Cr37  1  0.13634850  0.85693050  0.92370850  1
  Cr  Cr38  1  0.13634850  0.64306950  0.82629150  1
  Cr  Cr39  1  0.85693050  0.13634850  0.57629150  1
  O  O40  1  0.70843400  0.56120200  0.30801900  1
  O  O41  1  0.74455500  0.43160500  0.21232500  1
  O  O42  1  0.75000000  0.82044700  0.12500000  1
  O  O43  1  0.75544500  0.93160500  0.21232500  1
  O  O44  1  0.79156600  0.06120200  0.30801900  1
  O  O45  1  0.82044700  0.75000000  0.37500000  1
  O  O46  1  0.93160500  0.75544500  0.28767500  1
  O  O47  1  0.93160500  0.74455500  0.46232500  1
  O  O48  1  0.93879800  0.20843400  0.19198100  1
  O  O49  1  0.43879800  0.79156600  0.05801900  1
  O  O50  1  0.00000000  0.50000000  0.33886500  1
  O  O51  1  0.50000000  0.50000000  0.08886500  1
  O  O52  1  0.00000000  0.00000000  0.41113500  1
  O  O53  1  0.00000000  0.50000000  0.16113500  1
  O  O54  1  0.56120200  0.20843400  0.05801900  1
  O  O55  1  0.06120200  0.79156600  0.19198100  1
  O  O56  1  0.06839500  0.25544500  0.46232500  1
  O  O57  1  0.06839500  0.24455500  0.28767500  1
  O  O58  1  0.17955300  0.25000000  0.37500000  1
  O  O59  1  0.20843400  0.93879800  0.30801900  1
  O  O60  1  0.20843400  0.56120200  0.44198100  1
  O  O61  1  0.24455500  0.06839500  0.21232500  1
  O  O62  1  0.74455500  0.93160500  0.03767500  1
  O  O63  1  0.25000000  0.17955300  0.12500000  1
  O  O64  1  0.75000000  0.32044700  0.12500000  1
  O  O65  1  0.25544500  0.56839500  0.21232500  1
  O  O66  1  0.75544500  0.43160500  0.03767500  1
  O  O67  1  0.29156600  0.43879800  0.30801900  1
  O  O68  1  0.29156600  0.06120200  0.44198100  1
  O  O69  1  0.32044700  0.75000000  0.37500000  1
  O  O70  1  0.43160500  0.75544500  0.46232500  1
  O  O71  1  0.43160500  0.74455500  0.28767500  1
  O  O72  1  0.93879800  0.70843400  0.05801900  1
  O  O73  1  0.43879800  0.29156600  0.19198100  1
  O  O74  1  0.00000000  0.00000000  0.08886500  1
  O  O75  1  0.50000000  0.50000000  0.41113500  1
  O  O76  1  0.50000000  0.00000000  0.16113500  1
  O  O77  1  0.50000000  0.00000000  0.33886500  1
  O  O78  1  0.56120200  0.70843400  0.19198100  1
  O  O79  1  0.06120200  0.29156600  0.05801900  1
  O  O80  1  0.56839500  0.25544500  0.28767500  1
  O  O81  1  0.56839500  0.24455500  0.46232500  1
  O  O82  1  0.67955300  0.25000000  0.37500000  1
  O  O83  1  0.70843400  0.93879800  0.44198100  1
  O  O84  1  0.24455500  0.56839500  0.03767500  1
  O  O85  1  0.25000000  0.67955300  0.12500000  1
  O  O86  1  0.25544500  0.06839500  0.03767500  1
  O  O87  1  0.79156600  0.43879800  0.44198100  1
  O  O88  1  0.20843400  0.06120200  0.80801900  1
  O  O89  1  0.24455500  0.93160500  0.71232500  1
  O  O90  1  0.25000000  0.32044700  0.62500000  1
  O  O91  1  0.25544500  0.43160500  0.71232500  1
  O  O92  1  0.29156600  0.56120200  0.80801900  1
  O  O93  1  0.32044700  0.25000000  0.87500000  1
  O  O94  1  0.43160500  0.25544500  0.78767500  1
  O  O95  1  0.43160500  0.24455500  0.96232500  1
  O  O96  1  0.43879800  0.70843400  0.69198100  1
  O  O97  1  0.93879800  0.29156600  0.55801900  1
  O  O98  1  0.50000000  0.00000000  0.83886500  1
  O  O99  1  0.00000000  0.00000000  0.58886500  1
  O  O100  1  0.50000000  0.50000000  0.91113500  1
  O  O101  1  0.50000000  0.00000000  0.66113500  1
  O  O102  1  0.06120200  0.70843400  0.55801900  1
  O  O103  1  0.56120200  0.29156600  0.69198100  1
  O  O104  1  0.56839500  0.75544500  0.96232500  1
  O  O105  1  0.56839500  0.74455500  0.78767500  1
  O  O106  1  0.67955300  0.75000000  0.87500000  1
  O  O107  1  0.70843400  0.43879800  0.80801900  1
  O  O108  1  0.70843400  0.06120200  0.94198100  1
  O  O109  1  0.74455500  0.56839500  0.71232500  1
  O  O110  1  0.24455500  0.43160500  0.53767500  1
  O  O111  1  0.75000000  0.67955300  0.62500000  1
  O  O112  1  0.25000000  0.82044700  0.62500000  1
  O  O113  1  0.75544500  0.06839500  0.71232500  1
  O  O114  1  0.25544500  0.93160500  0.53767500  1
  O  O115  1  0.79156600  0.93879800  0.80801900  1
  O  O116  1  0.79156600  0.56120200  0.94198100  1
  O  O117  1  0.82044700  0.25000000  0.87500000  1
  O  O118  1  0.93160500  0.25544500  0.96232500  1
  O  O119  1  0.93160500  0.24455500  0.78767500  1
  O  O120  1  0.43879800  0.20843400  0.55801900  1
  O  O121  1  0.93879800  0.79156600  0.69198100  1
  O  O122  1  0.50000000  0.50000000  0.58886500  1
  O  O123  1  0.00000000  0.00000000  0.91113500  1
  O  O124  1  0.00000000  0.50000000  0.66113500  1
  O  O125  1  0.00000000  0.50000000  0.83886500  1
  O  O126  1  0.06120200  0.20843400  0.69198100  1
  O  O127  1  0.56120200  0.79156600  0.55801900  1
  O  O128  1  0.06839500  0.75544500  0.78767500  1
  O  O129  1  0.06839500  0.74455500  0.96232500  1
  O  O130  1  0.17955300  0.75000000  0.87500000  1
  O  O131  1  0.20843400  0.43879800  0.94198100  1
  O  O132  1  0.74455500  0.06839500  0.53767500  1
  O  O133  1  0.75000000  0.17955300  0.62500000  1
  O  O134  1  0.75544500  0.56839500  0.53767500  1
  O  O135  1  0.29156600  0.93879800  0.94198100  1
