# generated using pymatgen
data_ZnGeO3
_symmetry_space_group_name_H-M   'P 1'
_cell_length_a   5.04537596
_cell_length_b   5.04537596
_cell_length_c   14.08260295
_cell_angle_alpha   90.00000000
_cell_angle_beta   90.00000000
_cell_angle_gamma   120.00000000
_symmetry_Int_Tables_number   1
_chemical_formula_structural   ZnGeO3
_chemical_formula_sum   'Zn6 Ge6 O18'
_cell_volume   310.45641226
_cell_formula_units_Z   6
loop_
 _symmetry_equiv_pos_site_id
 _symmetry_equiv_pos_as_xyz
  1  'x, y, z'
loop_
 _atom_site_type_symbol
 _atom_site_label
 _atom_site_symmetry_multiplicity
 _atom_site_fract_x
 _atom_site_fract_y
 _atom_site_fract_z
 _atom_site_occupancy
  Zn  Zn0  1  0.33333333  0.66666667  0.29829967  1
  Zn  Zn1  1  0.33333333  0.66666667  0.03503367  1
  Zn  Zn2  1  0.00000000  0.00000000  0.63163300  1
  Zn  Zn3  1  0.00000000  0.00000000  0.36836700  1
  Zn  Zn4  1  0.66666667  0.33333333  0.96496633  1
  Zn  Zn5  1  0.66666667  0.33333333  0.70170033  1
  Ge  Ge6  1  0.66666667  0.33333333  0.17698633  1
  Ge  Ge7  1  0.00000000  0.00000000  0.15634700  1
  Ge  Ge8  1  0.33333333  0.66666667  0.51031967  1
  Ge  Ge9  1  0.66666667  0.33333333  0.48968033  1
  Ge  Ge10  1  0.00000000  0.00000000  0.84365300  1
  Ge  Ge11  1  0.33333333  0.66666667  0.82301367  1
  O  O12  1  0.31801867  0.02873233  0.24291433  1
  O  O13  1  0.71071367  0.68198133  0.24291433  1
  O  O14  1  0.97126767  0.28928633  0.24291433  1
  O  O15  1  0.34864800  0.30460100  0.09041900  1
  O  O16  1  0.69539900  0.04404700  0.09041900  1
  O  O17  1  0.95595300  0.65135200  0.09041900  1
  O  O18  1  0.98468533  0.36206567  0.57624767  1
  O  O19  1  0.37738033  0.01531467  0.57624767  1
  O  O20  1  0.63793433  0.62261967  0.57624767  1
  O  O21  1  0.01531467  0.63793433  0.42375233  1
  O  O22  1  0.36206567  0.37738033  0.42375233  1
  O  O23  1  0.62261967  0.98468533  0.42375233  1
  O  O24  1  0.65135200  0.69539900  0.90958100  1
  O  O25  1  0.04404700  0.34864800  0.90958100  1
  O  O26  1  0.30460100  0.95595300  0.90958100  1
  O  O27  1  0.68198133  0.97126767  0.75708567  1
  O  O28  1  0.02873233  0.71071367  0.75708567  1
  O  O29  1  0.28928633  0.31801867  0.75708567  1
