# generated using pymatgen
data_Na8SnO6
_symmetry_space_group_name_H-M   'P 1'
_cell_length_a   6.35187142
_cell_length_b   6.35187142
_cell_length_c   17.08142272
_cell_angle_alpha   90.00000000
_cell_angle_beta   90.00000000
_cell_angle_gamma   120.00000000
_symmetry_Int_Tables_number   1
_chemical_formula_structural   Na8SnO6
_chemical_formula_sum   'Na24 Sn3 O18'
_cell_volume   596.84020203
_cell_formula_units_Z   3
loop_
 _symmetry_equiv_pos_site_id
 _symmetry_equiv_pos_as_xyz
  1  'x, y, z'
loop_
 _atom_site_type_symbol
 _atom_site_label
 _atom_site_symmetry_multiplicity
 _atom_site_fract_x
 _atom_site_fract_y
 _atom_site_fract_z
 _atom_site_occupancy
  Na  Na0  1  0.33333333  0.66666667  0.00774067  1
  Na  Na1  1  0.97787667  0.36069533  0.11512833  1
  Na  Na2  1  0.02736200  0.71615200  0.21820500  1
  Na  Na3  1  0.28384800  0.31121000  0.21820500  1
  Na  Na4  1  0.38281867  0.02212333  0.11512833  1
  Na  Na5  1  0.63930467  0.61718133  0.11512833  1
  Na  Na6  1  0.68879000  0.97263800  0.21820500  1
  Na  Na7  1  0.33333333  0.66666667  0.32559267  1
  Na  Na8  1  0.00000000  0.00000000  0.34107400  1
  Na  Na9  1  0.64454333  0.69402867  0.44846167  1
  Na  Na10  1  0.69402867  0.04948533  0.55153833  1
  Na  Na11  1  0.95051467  0.64454333  0.55153833  1
  Na  Na12  1  0.04948533  0.35545667  0.44846167  1
  Na  Na13  1  0.30597133  0.95051467  0.44846167  1
  Na  Na14  1  0.35545667  0.30597133  0.55153833  1
  Na  Na15  1  0.00000000  0.00000000  0.65892600  1
  Na  Na16  1  0.66666667  0.33333333  0.67440733  1
  Na  Na17  1  0.31121000  0.02736200  0.78179500  1
  Na  Na18  1  0.36069533  0.38281867  0.88487167  1
  Na  Na19  1  0.61718133  0.97787667  0.88487167  1
  Na  Na20  1  0.71615200  0.68879000  0.78179500  1
  Na  Na21  1  0.97263800  0.28384800  0.78179500  1
  Na  Na22  1  0.02212333  0.63930467  0.88487167  1
  Na  Na23  1  0.66666667  0.33333333  0.99225933  1
  Sn  Sn24  1  0.00000000  0.00000000  0.00000000  1
  Sn  Sn25  1  0.66666667  0.33333333  0.33333333  1
  Sn  Sn26  1  0.33333333  0.66666667  0.66666667  1
  O  O27  1  0.96002667  0.34735233  0.26068833  1
  O  O28  1  0.27934100  0.29336000  0.07264500  1
  O  O29  1  0.01401900  0.72065900  0.07264500  1
  O  O30  1  0.65264767  0.61267433  0.26068833  1
  O  O31  1  0.38732567  0.03997333  0.26068833  1
  O  O32  1  0.70664000  0.98598100  0.07264500  1
  O  O33  1  0.62669333  0.68068567  0.59402167  1
  O  O34  1  0.94600767  0.62669333  0.40597833  1
  O  O35  1  0.68068567  0.05399233  0.40597833  1
  O  O36  1  0.31931433  0.94600767  0.59402167  1
  O  O37  1  0.05399233  0.37330667  0.59402167  1
  O  O38  1  0.37330667  0.31931433  0.40597833  1
  O  O39  1  0.29336000  0.01401900  0.92735500  1
  O  O40  1  0.61267433  0.96002667  0.73931167  1
  O  O41  1  0.34735233  0.38732567  0.73931167  1
  O  O42  1  0.98598100  0.27934100  0.92735500  1
  O  O43  1  0.72065900  0.70664000  0.92735500  1
  O  O44  1  0.03997333  0.65264767  0.73931167  1
