# generated using pymatgen
data_SrTaNO2
_symmetry_space_group_name_H-M   'P 1'
_cell_length_a   8.02983600
_cell_length_b   8.19153400
_cell_length_c   8.17597519
_cell_angle_alpha   90.00000000
_cell_angle_beta   90.07051272
_cell_angle_gamma   90.00000000
_symmetry_Int_Tables_number   1
_chemical_formula_structural   SrTaNO2
_chemical_formula_sum   'Sr8 Ta8 N8 O16'
_cell_volume   537.78805252
_cell_formula_units_Z   8
loop_
 _symmetry_equiv_pos_site_id
 _symmetry_equiv_pos_as_xyz
  1  'x, y, z'
loop_
 _atom_site_type_symbol
 _atom_site_label
 _atom_site_symmetry_multiplicity
 _atom_site_fract_x
 _atom_site_fract_y
 _atom_site_fract_z
 _atom_site_occupancy
  Sr  Sr0  1  0.50000000  0.49848400  0.50000000  1
  Sr  Sr1  1  0.50000000  0.99043600  0.50000000  1
  Sr  Sr2  1  0.50000000  0.00033700  0.00000000  1
  Sr  Sr3  1  0.50000000  0.50617200  0.00000000  1
  Sr  Sr4  1  0.00000000  0.99848400  0.50000000  1
  Sr  Sr5  1  0.00000000  0.49043600  0.50000000  1
  Sr  Sr6  1  0.00000000  0.50033700  0.00000000  1
  Sr  Sr7  1  0.00000000  0.00617200  0.00000000  1
  Ta  Ta8  1  0.75231900  0.75831900  0.24313200  1
  Ta  Ta9  1  0.25114350  0.24129050  0.75522400  1
  Ta  Ta10  1  0.24768100  0.75831900  0.75686800  1
  Ta  Ta11  1  0.74885650  0.24129050  0.24477600  1
  Ta  Ta12  1  0.25231900  0.25831900  0.24313200  1
  Ta  Ta13  1  0.75114350  0.74129050  0.75522400  1
  Ta  Ta14  1  0.74768100  0.25831900  0.75686800  1
  Ta  Ta15  1  0.24885650  0.74129050  0.24477600  1
  N  N16  1  0.22935700  0.00032300  0.74587000  1
  N  N17  1  0.27415500  0.24900000  0.00018700  1
  N  N18  1  0.72584500  0.24900000  0.99981300  1
  N  N19  1  0.77064300  0.00032300  0.25413000  1
  N  N20  1  0.72935700  0.50032300  0.74587000  1
  N  N21  1  0.77415500  0.74900000  0.00018700  1
  N  N22  1  0.22584500  0.74900000  0.99981300  1
  N  N23  1  0.27064300  0.50032300  0.25413000  1
  O  O24  1  0.22296600  0.00029600  0.25899100  1
  O  O25  1  0.27782650  0.75243350  0.49962400  1
  O  O26  1  0.50133850  0.22588950  0.71733400  1
  O  O27  1  0.49864200  0.77473500  0.23151800  1
  O  O28  1  0.49866150  0.22588950  0.28266600  1
  O  O29  1  0.50135800  0.77473500  0.76848200  1
  O  O30  1  0.72217350  0.75243350  0.50037600  1
  O  O31  1  0.77703400  0.00029600  0.74100900  1
  O  O32  1  0.72296600  0.50029600  0.25899100  1
  O  O33  1  0.77782650  0.25243350  0.49962400  1
  O  O34  1  0.00133850  0.72588950  0.71733400  1
  O  O35  1  0.99864200  0.27473500  0.23151800  1
  O  O36  1  0.99866150  0.72588950  0.28266600  1
  O  O37  1  0.00135800  0.27473500  0.76848200  1
  O  O38  1  0.22217350  0.25243350  0.50037600  1
  O  O39  1  0.27703400  0.50029600  0.74100900  1
