# generated using pymatgen
data_Na3Zn4As3H12O19
_symmetry_space_group_name_H-M   'P 1'
_cell_length_a   11.10820361
_cell_length_b   11.10820361
_cell_length_c   26.80045042
_cell_angle_alpha   90.00000000
_cell_angle_beta   90.00000000
_cell_angle_gamma   120.00000000
_symmetry_Int_Tables_number   1
_chemical_formula_structural   Na3Zn4As3H12O19
_chemical_formula_sum   'Na18 Zn24 As18 H72 O114'
_cell_volume   2863.91673871
_cell_formula_units_Z   6
loop_
 _symmetry_equiv_pos_site_id
 _symmetry_equiv_pos_as_xyz
  1  'x, y, z'
loop_
 _atom_site_type_symbol
 _atom_site_label
 _atom_site_symmetry_multiplicity
 _atom_site_fract_x
 _atom_site_fract_y
 _atom_site_fract_z
 _atom_site_occupancy
  Na  Na0  1  0.83702733  0.56045367  0.22413067  1
  Na  Na1  1  0.10621300  0.49630600  0.05746400  1
  Na  Na2  1  0.43954633  0.27657367  0.22413067  1
  Na  Na3  1  0.50369400  0.60990700  0.05746400  1
  Na  Na4  1  0.39009300  0.89378700  0.05746400  1
  Na  Na5  1  0.72342633  0.16297267  0.22413067  1
  Na  Na6  1  0.50369400  0.89378700  0.55746400  1
  Na  Na7  1  0.77287967  0.82963933  0.39079733  1
  Na  Na8  1  0.10621300  0.60990700  0.55746400  1
  Na  Na9  1  0.17036067  0.94324033  0.39079733  1
  Na  Na10  1  0.05675967  0.22712033  0.39079733  1
  Na  Na11  1  0.39009300  0.49630600  0.55746400  1
  Na  Na12  1  0.17036067  0.22712033  0.89079733  1
  Na  Na13  1  0.43954633  0.16297267  0.72413067  1
  Na  Na14  1  0.77287967  0.94324033  0.89079733  1
  Na  Na15  1  0.83702733  0.27657367  0.72413067  1
  Na  Na16  1  0.72342633  0.56045367  0.72413067  1
  Na  Na17  1  0.05675967  0.82963933  0.89079733  1
  Zn  Zn18  1  0.90955367  0.10607133  0.09593933  1
  Zn  Zn19  1  0.24288700  0.47014900  0.26260600  1
  Zn  Zn20  1  0.22726200  0.75711300  0.26260600  1
  Zn  Zn21  1  0.33333333  0.66666667  0.66579967  1
  Zn  Zn22  1  0.33333333  0.66666667  0.16579967  1
  Zn  Zn23  1  0.19651767  0.09044633  0.09593933  1
  Zn  Zn24  1  0.52985100  0.77273800  0.26260600  1
  Zn  Zn25  1  0.89392867  0.80348233  0.09593933  1
  Zn  Zn26  1  0.57622033  0.43940467  0.42927267  1
  Zn  Zn27  1  0.90955367  0.80348233  0.59593933  1
  Zn  Zn28  1  0.89392867  0.09044633  0.59593933  1
  Zn  Zn29  1  0.00000000  0.00000000  0.99913300  1
  Zn  Zn30  1  0.00000000  0.00000000  0.49913300  1
  Zn  Zn31  1  0.86318433  0.42377967  0.42927267  1
  Zn  Zn32  1  0.19651767  0.10607133  0.59593933  1
  Zn  Zn33  1  0.56059533  0.13681567  0.42927267  1
  Zn  Zn34  1  0.24288700  0.77273800  0.76260600  1
  Zn  Zn35  1  0.57622033  0.13681567  0.92927267  1
  Zn  Zn36  1  0.56059533  0.42377967  0.92927267  1
  Zn  Zn37  1  0.66666667  0.33333333  0.33246633  1
  Zn  Zn38  1  0.66666667  0.33333333  0.83246633  1
  Zn  Zn39  1  0.52985100  0.75711300  0.76260600  1
  Zn  Zn40  1  0.86318433  0.43940467  0.92927267  1
  Zn  Zn41  1  0.22726200  0.47014900  0.76260600  1
  As  As42  1  0.99163067  0.47912133  0.31677133  1
  As  As43  1  0.18754533  0.34170267  0.15010467  1
  As  As44  1  0.15415733  0.81245467  0.15010467  1
  As  As45  1  0.52087867  0.51250933  0.31677133  1
  As  As46  1  0.48749067  0.00836933  0.31677133  1
  As  As47  1  0.65829733  0.84584267  0.15010467  1
  As  As48  1  0.65829733  0.81245467  0.65010467  1
  As  As49  1  0.85421200  0.67503600  0.48343800  1
  As  As50  1  0.82082400  0.14578800  0.48343800  1
  As  As51  1  0.18754533  0.84584267  0.65010467  1
  As  As52  1  0.15415733  0.34170267  0.65010467  1
  As  As53  1  0.32496400  0.17917600  0.48343800  1
  As  As54  1  0.32496400  0.14578800  0.98343800  1
  As  As55  1  0.52087867  0.00836933  0.81677133  1
  As  As56  1  0.48749067  0.47912133  0.81677133  1
  As  As57  1  0.85421200  0.17917600  0.98343800  1
  As  As58  1  0.82082400  0.67503600  0.98343800  1
  As  As59  1  0.99163067  0.51250933  0.81677133  1
  H  H60  1  0.86171200  0.39828600  0.14803200  1
  H  H61  1  0.95775300  0.38813000  0.18840700  1
  H  H62  1  0.12548967  0.45379533  0.90578733  1
  H  H63  1  0.27853667  0.37558033  0.02174033  1
  H  H64  1  0.32830567  0.45379533  0.40578733  1
  H  H65  1  0.26838067  0.47162133  0.98136533  1
  H  H66  1  0.09704367  0.72146333  0.02174033  1
  H  H67  1  0.22773067  0.50975733  0.39358033  1
  H  H68  1  0.28202667  0.50975733  0.89358033  1
  H  H69  1  0.12548967  0.67169433  0.40578733  1
  H  H70  1  0.20324067  0.73161933  0.98136533  1
  H  H71  1  0.22773067  0.71797333  0.89358033  1
  H  H72  1  0.28202667  0.77226933  0.39358033  1
  H  H73  1  0.60171400  0.46342600  0.14803200  1
  H  H74  1  0.32830567  0.87451033  0.90578733  1
  H  H75  1  0.49024267  0.71797333  0.39358033  1
  H  H76  1  0.49024267  0.77226933  0.89358033  1
  H  H77  1  0.61187000  0.56962300  0.18840700  1
  H  H78  1  0.54620467  0.67169433  0.90578733  1
  H  H79  1  0.52837867  0.79675933  0.98136533  1
  H  H80  1  0.54620467  0.87451033  0.40578733  1
  H  H81  1  0.43037700  0.04224700  0.18840700  1
  H  H82  1  0.62441967  0.90295633  0.02174033  1
  H  H83  1  0.53657400  0.13828800  0.14803200  1
  H  H84  1  0.52837867  0.73161933  0.48136533  1
  H  H85  1  0.62441967  0.72146333  0.52174033  1
  H  H86  1  0.79215633  0.78712867  0.23912067  1
  H  H87  1  0.94520333  0.70891367  0.35507367  1
  H  H88  1  0.99497233  0.78712867  0.73912067  1
  H  H89  1  0.93504733  0.80495467  0.31469867  1
  H  H90  1  0.76371033  0.05479667  0.35507367  1
  H  H91  1  0.89439733  0.84309067  0.72691367  1
  H  H92  1  0.94869333  0.84309067  0.22691367  1
  H  H93  1  0.79215633  0.00502767  0.73912067  1
  H  H94  1  0.86990733  0.06495267  0.31469867  1
  H  H95  1  0.89439733  0.05130667  0.22691367  1
  H  H96  1  0.94869333  0.10560267  0.72691367  1
  H  H97  1  0.26838067  0.79675933  0.48136533  1
  H  H98  1  0.99497233  0.20784367  0.23912067  1
  H  H99  1  0.15690933  0.05130667  0.72691367  1
  H  H100  1  0.15690933  0.10560267  0.22691367  1
  H  H101  1  0.27853667  0.90295633  0.52174033  1
  H  H102  1  0.21287133  0.00502767  0.23912067  1
  H  H103  1  0.19504533  0.13009267  0.31469867  1
  H  H104  1  0.21287133  0.20784367  0.73912067  1
  H  H105  1  0.09704367  0.37558033  0.52174033  1
  H  H106  1  0.29108633  0.23628967  0.35507367  1
  H  H107  1  0.20324067  0.47162133  0.48136533  1
  H  H108  1  0.19504533  0.06495267  0.81469867  1
  H  H109  1  0.29108633  0.05479667  0.85507367  1
  H  H110  1  0.45882300  0.12046200  0.57245400  1
  H  H111  1  0.61187000  0.04224700  0.68840700  1
  H  H112  1  0.66163900  0.12046200  0.07245400  1
  H  H113  1  0.60171400  0.13828800  0.64803200  1
  H  H114  1  0.43037700  0.38813000  0.68840700  1
  H  H115  1  0.56106400  0.17642400  0.06024700  1
  H  H116  1  0.61536000  0.17642400  0.56024700  1
  H  H117  1  0.45882300  0.33836100  0.07245400  1
  H  H118  1  0.53657400  0.39828600  0.64803200  1
  H  H119  1  0.56106400  0.38464000  0.56024700  1
  H  H120  1  0.61536000  0.43893600  0.06024700  1
  H  H121  1  0.93504733  0.13009267  0.81469867  1
  H  H122  1  0.66163900  0.54117700  0.57245400  1
  H  H123  1  0.82357600  0.38464000  0.06024700  1
  H  H124  1  0.82357600  0.43893600  0.56024700  1
  H  H125  1  0.94520333  0.23628967  0.85507367  1
  H  H126  1  0.87953800  0.33836100  0.57245400  1
  H  H127  1  0.86171200  0.46342600  0.64803200  1
  H  H128  1  0.87953800  0.54117700  0.07245400  1
  H  H129  1  0.76371033  0.70891367  0.85507367  1
  H  H130  1  0.95775300  0.56962300  0.68840700  1
  H  H131  1  0.86990733  0.80495467  0.81469867  1
  O  O132  1  0.83246967  0.33968333  0.30169933  1
  O  O133  1  0.86533567  0.37783433  0.18395133  1
  O  O134  1  0.05925400  0.29918100  0.10614000  1
  O  O135  1  0.23382367  0.21483033  0.15431133  1
  O  O136  1  0.11933700  0.35179400  0.20753400  1
  O  O137  1  0.98153933  0.54732967  0.37420067  1
  O  O138  1  0.11850300  0.43284300  0.32097800  1
  O  O139  1  0.03415233  0.60741267  0.27280667  1
  O  O140  1  0.21230300  0.46154000  0.91963000  1
  O  O141  1  0.24923700  0.46154000  0.41963000  1
  O  O142  1  0.98100667  0.76617633  0.15431133  1
  O  O143  1  0.28883233  0.46799767  0.01728467  1
  O  O144  1  0.39258733  0.42673967  0.27280667  1
  O  O145  1  0.32698333  0.50086367  0.13503267  1
  O  O146  1  0.17388033  0.67301667  0.13503267  1
  O  O147  1  0.45267033  0.43420967  0.37420067  1
  O  O148  1  0.17916533  0.71116767  0.01728467  1
  O  O149  1  0.21230300  0.75076300  0.41963000  1
  O  O150  1  0.33333333  0.66666667  0.73964967  1
  O  O151  1  0.33333333  0.66666667  0.23964967  1
  O  O152  1  0.24923700  0.78769700  0.91963000  1
  O  O153  1  0.62216567  0.48750133  0.18395133  1
  O  O154  1  0.23245700  0.88066300  0.20753400  1
  O  O155  1  0.66031667  0.49278633  0.30169933  1
  O  O156  1  0.23992700  0.94074600  0.10614000  1
  O  O157  1  0.31434000  0.88149700  0.32097800  1
  O  O158  1  0.56715700  0.68566000  0.32097800  1
  O  O159  1  0.53846000  0.75076300  0.91963000  1
  O  O160  1  0.53846000  0.78769700  0.41963000  1
  O  O161  1  0.49913633  0.82611967  0.13503267  1
  O  O162  1  0.53200233  0.82083467  0.01728467  1
  O  O163  1  0.64820600  0.76754300  0.20753400  1
  O  O164  1  0.70081900  0.76007300  0.10614000  1
  O  O165  1  0.57326033  0.96584767  0.27280667  1
  O  O166  1  0.56579033  0.01846067  0.37420067  1
  O  O167  1  0.51249867  0.13466433  0.18395133  1
  O  O168  1  0.50721367  0.16753033  0.30169933  1
  O  O169  1  0.78516967  0.01899333  0.15431133  1
  O  O170  1  0.49913633  0.67301667  0.63503267  1
  O  O171  1  0.53200233  0.71116767  0.51728467  1
  O  O172  1  0.72592067  0.63251433  0.43947333  1
  O  O173  1  0.90049033  0.54816367  0.48764467  1
  O  O174  1  0.78600367  0.68512733  0.54086733  1
  O  O175  1  0.64820600  0.88066300  0.70753400  1
  O  O176  1  0.78516967  0.76617633  0.65431133  1
  O  O177  1  0.70081900  0.94074600  0.60614000  1
  O  O178  1  0.87896967  0.79487333  0.25296333  1
  O  O179  1  0.91590367  0.79487333  0.75296333  1
  O  O180  1  0.64767333  0.09950967  0.48764467  1
  O  O181  1  0.95549900  0.80133100  0.35061800  1
  O  O182  1  0.05925400  0.76007300  0.60614000  1
  O  O183  1  0.99365000  0.83419700  0.46836600  1
  O  O184  1  0.84054700  0.00635000  0.46836600  1
  O  O185  1  0.11933700  0.76754300  0.70753400  1
  O  O186  1  0.84583200  0.04450100  0.35061800  1
  O  O187  1  0.87896967  0.08409633  0.75296333  1
  O  O188  1  0.00000000  0.00000000  0.07298300  1
  O  O189  1  0.00000000  0.00000000  0.57298300  1
  O  O190  1  0.91590367  0.12103033  0.25296333  1
  O  O191  1  0.28883233  0.82083467  0.51728467  1
  O  O192  1  0.89912367  0.21399633  0.54086733  1
  O  O193  1  0.32698333  0.82611967  0.63503267  1
  O  O194  1  0.90659367  0.27407933  0.43947333  1
  O  O195  1  0.98100667  0.21483033  0.65431133  1
  O  O196  1  0.23382367  0.01899333  0.65431133  1
  O  O197  1  0.20512667  0.08409633  0.25296333  1
  O  O198  1  0.20512667  0.12103033  0.75296333  1
  O  O199  1  0.16580300  0.15945300  0.46836600  1
  O  O200  1  0.19866900  0.15416800  0.35061800  1
  O  O201  1  0.31487267  0.10087633  0.54086733  1
  O  O202  1  0.36748567  0.09340633  0.43947333  1
  O  O203  1  0.23992700  0.29918100  0.60614000  1
  O  O204  1  0.23245700  0.35179400  0.70753400  1
  O  O205  1  0.17916533  0.46799767  0.51728467  1
  O  O206  1  0.17388033  0.50086367  0.63503267  1
  O  O207  1  0.45183633  0.35232667  0.48764467  1
  O  O208  1  0.16580300  0.00635000  0.96836600  1
  O  O209  1  0.19866900  0.04450100  0.85061800  1
  O  O210  1  0.39258733  0.96584767  0.77280667  1
  O  O211  1  0.56715700  0.88149700  0.82097800  1
  O  O212  1  0.45267033  0.01846067  0.87420067  1
  O  O213  1  0.31487267  0.21399633  0.04086733  1
  O  O214  1  0.45183633  0.09950967  0.98764467  1
  O  O215  1  0.36748567  0.27407933  0.93947333  1
  O  O216  1  0.54563633  0.12820667  0.58629667  1
  O  O217  1  0.58257033  0.12820667  0.08629667  1
  O  O218  1  0.31434000  0.43284300  0.82097800  1
  O  O219  1  0.62216567  0.13466433  0.68395133  1
  O  O220  1  0.72592067  0.09340633  0.93947333  1
  O  O221  1  0.66031667  0.16753033  0.80169933  1
  O  O222  1  0.50721367  0.33968333  0.80169933  1
  O  O223  1  0.78600367  0.10087633  0.04086733  1
  O  O224  1  0.51249867  0.37783433  0.68395133  1
  O  O225  1  0.54563633  0.41742967  0.08629667  1
  O  O226  1  0.66666667  0.33333333  0.40631633  1
  O  O227  1  0.66666667  0.33333333  0.90631633  1
  O  O228  1  0.58257033  0.45436367  0.58629667  1
  O  O229  1  0.95549900  0.15416800  0.85061800  1
  O  O230  1  0.56579033  0.54732967  0.87420067  1
  O  O231  1  0.99365000  0.15945300  0.96836600  1
  O  O232  1  0.57326033  0.60741267  0.77280667  1
  O  O233  1  0.64767333  0.54816367  0.98764467  1
  O  O234  1  0.90049033  0.35232667  0.98764467  1
  O  O235  1  0.87179333  0.41742967  0.58629667  1
  O  O236  1  0.87179333  0.45436367  0.08629667  1
  O  O237  1  0.83246967  0.49278633  0.80169933  1
  O  O238  1  0.86533567  0.48750133  0.68395133  1
  O  O239  1  0.98153933  0.43420967  0.87420067  1
  O  O240  1  0.03415233  0.42673967  0.77280667  1
  O  O241  1  0.90659367  0.63251433  0.93947333  1
  O  O242  1  0.89912367  0.68512733  0.04086733  1
  O  O243  1  0.84583200  0.80133100  0.85061800  1
  O  O244  1  0.84054700  0.83419700  0.96836600  1
  O  O245  1  0.11850300  0.68566000  0.82097800  1
