# generated using pymatgen
data_Ti2CdO5
_symmetry_space_group_name_H-M   'P 1'
_cell_length_a   3.72910800
_cell_length_b   10.29165200
_cell_length_c   10.74472300
_cell_angle_alpha   90.00000000
_cell_angle_beta   90.00000000
_cell_angle_gamma   90.00000000
_symmetry_Int_Tables_number   1
_chemical_formula_structural   Ti2CdO5
_chemical_formula_sum   'Ti8 Cd4 O20'
_cell_volume   412.36830512
_cell_formula_units_Z   4
loop_
 _symmetry_equiv_pos_site_id
 _symmetry_equiv_pos_as_xyz
  1  'x, y, z'
loop_
 _atom_site_type_symbol
 _atom_site_label
 _atom_site_symmetry_multiplicity
 _atom_site_fract_x
 _atom_site_fract_y
 _atom_site_fract_z
 _atom_site_occupancy
  Ti  Ti0  1  0.00000000  0.12944800  0.06570800  1
  Ti  Ti1  1  0.00000000  0.12944800  0.43429200  1
  Ti  Ti2  1  0.50000000  0.37055200  0.56570800  1
  Ti  Ti3  1  0.50000000  0.37055200  0.93429200  1
  Ti  Ti4  1  0.50000000  0.62944800  0.06570800  1
  Ti  Ti5  1  0.50000000  0.62944800  0.43429200  1
  Ti  Ti6  1  0.00000000  0.87055200  0.56570800  1
  Ti  Ti7  1  0.00000000  0.87055200  0.93429200  1
  Cd  Cd8  1  0.00000000  0.19031000  0.75000000  1
  Cd  Cd9  1  0.50000000  0.30969000  0.25000000  1
  Cd  Cd10  1  0.50000000  0.69031000  0.75000000  1
  Cd  Cd11  1  0.00000000  0.80969000  0.25000000  1
  O  O12  1  0.00000000  0.04381100  0.60337200  1
  O  O13  1  0.00000000  0.04381100  0.89662800  1
  O  O14  1  0.00000000  0.31486400  0.55247500  1
  O  O15  1  0.00000000  0.31486400  0.94752500  1
  O  O16  1  0.50000000  0.31488200  0.75000000  1
  O  O17  1  0.00000000  0.18511800  0.25000000  1
  O  O18  1  0.50000000  0.18513600  0.05247500  1
  O  O19  1  0.50000000  0.45618900  0.10337200  1
  O  O20  1  0.50000000  0.18513600  0.44752500  1
  O  O21  1  0.50000000  0.45618900  0.39662800  1
  O  O22  1  0.50000000  0.54381100  0.60337200  1
  O  O23  1  0.50000000  0.54381100  0.89662800  1
  O  O24  1  0.50000000  0.81486400  0.55247500  1
  O  O25  1  0.50000000  0.81486400  0.94752500  1
  O  O26  1  0.00000000  0.81488200  0.75000000  1
  O  O27  1  0.50000000  0.68511800  0.25000000  1
  O  O28  1  0.00000000  0.68513600  0.05247500  1
  O  O29  1  0.00000000  0.95618900  0.10337200  1
  O  O30  1  0.00000000  0.68513600  0.44752500  1
  O  O31  1  0.00000000  0.95618900  0.39662800  1
