# generated using pymatgen
data_Ca3Sn2S7
_symmetry_space_group_name_H-M   'P 1'
_cell_length_a   10.52193700
_cell_length_b   6.61350900
_cell_length_c   17.48677668
_cell_angle_alpha   90.00000000
_cell_angle_beta   97.77032659
_cell_angle_gamma   90.00000000
_symmetry_Int_Tables_number   1
_chemical_formula_structural   Ca3Sn2S7
_chemical_formula_sum   'Ca12 Sn8 S28'
_cell_volume   1205.67788538
_cell_formula_units_Z   4
loop_
 _symmetry_equiv_pos_site_id
 _symmetry_equiv_pos_as_xyz
  1  'x, y, z'
loop_
 _atom_site_type_symbol
 _atom_site_label
 _atom_site_symmetry_multiplicity
 _atom_site_fract_x
 _atom_site_fract_y
 _atom_site_fract_z
 _atom_site_occupancy
  Ca  Ca0  1  0.96001500  0.22477200  0.12151900  1
  Ca  Ca1  1  0.03998500  0.72477200  0.37848100  1
  Ca  Ca2  1  0.03998500  0.77522800  0.87848100  1
  Ca  Ca3  1  0.96001500  0.27522800  0.62151900  1
  Ca  Ca4  1  0.50853200  0.28428800  0.11757600  1
  Ca  Ca5  1  0.49146800  0.78428800  0.38242400  1
  Ca  Ca6  1  0.49146800  0.71571200  0.88242400  1
  Ca  Ca7  1  0.50853200  0.21571200  0.61757600  1
  Ca  Ca8  1  0.74780700  0.26728600  0.82904900  1
  Ca  Ca9  1  0.25219300  0.76728600  0.67095100  1
  Ca  Ca10  1  0.25219300  0.73271400  0.17095100  1
  Ca  Ca11  1  0.74780700  0.23271400  0.32904900  1
  Sn  Sn12  1  0.20861000  0.20100800  0.50138300  1
  Sn  Sn13  1  0.79139000  0.70100800  0.99861700  1
  Sn  Sn14  1  0.79139000  0.79899200  0.49861700  1
  Sn  Sn15  1  0.20861000  0.29899200  0.00138300  1
  Sn  Sn16  1  0.27256600  0.29842400  0.29802300  1
  Sn  Sn17  1  0.72743400  0.79842400  0.20197700  1
  Sn  Sn18  1  0.72743400  0.70157600  0.70197700  1
  Sn  Sn19  1  0.27256600  0.20157600  0.79802300  1
  S  S20  1  0.45061100  0.47933600  0.25704000  1
  S  S21  1  0.54938900  0.97933600  0.24296000  1
  S  S22  1  0.54938900  0.52066400  0.74296000  1
  S  S23  1  0.45061100  0.02066400  0.75704000  1
  S  S24  1  0.08234800  0.48384900  0.24843000  1
  S  S25  1  0.91765200  0.98384900  0.25157000  1
  S  S26  1  0.91765200  0.51615100  0.75157000  1
  S  S27  1  0.08234800  0.01615100  0.74843000  1
  S  S28  1  0.25266300  0.94062900  0.31922100  1
  S  S29  1  0.74733700  0.44062900  0.18077900  1
  S  S30  1  0.74733700  0.05937100  0.68077900  1
  S  S31  1  0.25266300  0.55937100  0.81922100  1
  S  S32  1  0.32263200  0.44741500  0.43037400  1
  S  S33  1  0.67736800  0.94741500  0.06962600  1
  S  S34  1  0.67736800  0.55258500  0.56962600  1
  S  S35  1  0.32263200  0.05258500  0.93037400  1
  S  S36  1  0.34930000  0.91765500  0.53298600  1
  S  S37  1  0.65070000  0.41765500  0.96701400  1
  S  S38  1  0.65070000  0.08234500  0.46701400  1
  S  S39  1  0.34930000  0.58234500  0.03298600  1
  S  S40  1  0.98743900  0.23648000  0.45249100  1
  S  S41  1  0.01256100  0.73648000  0.04750900  1
  S  S42  1  0.01256100  0.76352000  0.54750900  1
  S  S43  1  0.98743900  0.26352000  0.95249100  1
  S  S44  1  0.23406800  0.35897800  0.62866800  1
  S  S45  1  0.76593200  0.85897800  0.87133200  1
  S  S46  1  0.76593200  0.64102200  0.37133200  1
  S  S47  1  0.23406800  0.14102200  0.12866800  1
