# generated using pymatgen
data_Mn12O7F17
_symmetry_space_group_name_H-M   'P 1'
_cell_length_a   4.80947600
_cell_length_b   5.77529617
_cell_length_c   15.96347639
_cell_angle_alpha   89.46061006
_cell_angle_beta   89.41575762
_cell_angle_gamma   84.77168775
_symmetry_Int_Tables_number   1
_chemical_formula_structural   Mn12O7F17
_chemical_formula_sum   'Mn12 O7 F17'
_cell_volume   441.52011766
_cell_formula_units_Z   1
loop_
 _symmetry_equiv_pos_site_id
 _symmetry_equiv_pos_as_xyz
  1  'x, y, z'
loop_
 _atom_site_type_symbol
 _atom_site_label
 _atom_site_symmetry_multiplicity
 _atom_site_fract_x
 _atom_site_fract_y
 _atom_site_fract_z
 _atom_site_occupancy
  Mn  Mn0  1  0.99606000  0.84998800  0.41264000  1
  Mn  Mn1  1  0.96616600  0.17075200  0.24484800  1
  Mn  Mn2  1  0.99972100  0.84601200  0.08579400  1
  Mn  Mn3  1  0.99331400  0.84365900  0.74818000  1
  Mn  Mn4  1  0.99030700  0.17377400  0.57101500  1
  Mn  Mn5  1  0.98154700  0.16800100  0.90669800  1
  Mn  Mn6  1  0.48800200  0.67058900  0.59170300  1
  Mn  Mn7  1  0.48639800  0.67223000  0.92752200  1
  Mn  Mn8  1  0.48749300  0.64602600  0.26114700  1
  Mn  Mn9  1  0.49141100  0.34132300  0.08573000  1
  Mn  Mn10  1  0.51221500  0.34845600  0.41227600  1
  Mn  Mn11  1  0.49221000  0.34235200  0.75098100  1
  O  O12  1  0.77398300  0.11586300  0.13457300  1
  O  O13  1  0.77287700  0.11039600  0.46161100  1
  O  O14  1  0.76610300  0.10869500  0.79697400  1
  O  O15  1  0.70856000  0.39085300  0.30835000  1
  O  O16  1  0.27078800  0.60919900  0.03800400  1
  O  O17  1  0.26948500  0.61302700  0.36387500  1
  O  O18  1  0.26844100  0.61017300  0.70211300  1
  F  F19  1  0.77049200  0.88248000  0.30608500  1
  F  F20  1  0.78899800  0.88485600  0.63850900  1
  F  F21  1  0.78723500  0.88411000  0.97492500  1
  F  F22  1  0.72653400  0.61898600  0.15296700  1
  F  F23  1  0.75408400  0.61547800  0.48178800  1
  F  F24  1  0.73020900  0.38474600  0.64690800  1
  F  F25  1  0.74251400  0.60734300  0.81485000  1
  F  F26  1  0.73064100  0.38420800  0.98316300  1
  F  F27  1  0.26865000  0.37811500  0.19106200  1
  F  F28  1  0.30186700  0.38018200  0.52188900  1
  F  F29  1  0.28927400  0.38248000  0.86225900  1
  F  F30  1  0.23121300  0.87646700  0.19695400  1
  F  F31  1  0.23107100  0.88410700  0.51725000  1
  F  F32  1  0.22051800  0.10848800  0.35026100  1
  F  F33  1  0.24165700  0.10241400  0.02072500  1
  F  F34  1  0.22777600  0.88421500  0.85178800  1
  F  F35  1  0.24218300  0.10995700  0.68458400  1
