# generated using pymatgen
data_Mg2PbO4
_symmetry_space_group_name_H-M   'P 1'
_cell_length_a   3.18650300
_cell_length_b   5.36328900
_cell_length_c   9.77307100
_cell_angle_alpha   90.00000000
_cell_angle_beta   90.00000000
_cell_angle_gamma   90.00000000
_symmetry_Int_Tables_number   1
_chemical_formula_structural   Mg2PbO4
_chemical_formula_sum   'Mg4 Pb2 O8'
_cell_volume   167.02311730
_cell_formula_units_Z   2
loop_
 _symmetry_equiv_pos_site_id
 _symmetry_equiv_pos_as_xyz
  1  'x, y, z'
loop_
 _atom_site_type_symbol
 _atom_site_label
 _atom_site_symmetry_multiplicity
 _atom_site_fract_x
 _atom_site_fract_y
 _atom_site_fract_z
 _atom_site_occupancy
  Mg  Mg0  1  0.00000000  0.05417800  0.31722300  1
  Mg  Mg1  1  0.00000000  0.44582200  0.81722300  1
  Mg  Mg2  1  0.00000000  0.55417800  0.18277700  1
  Mg  Mg3  1  0.00000000  0.94582200  0.68277700  1
  Pb  Pb4  1  0.50000000  0.00000000  0.00000000  1
  Pb  Pb5  1  0.50000000  0.50000000  0.50000000  1
  O  O6  1  0.50000000  0.17387700  0.79668800  1
  O  O7  1  0.00000000  0.26514600  0.04746100  1
  O  O8  1  0.00000000  0.23485400  0.54746100  1
  O  O9  1  0.50000000  0.32612300  0.29668800  1
  O  O10  1  0.50000000  0.67387700  0.70331200  1
  O  O11  1  0.00000000  0.76514600  0.45253900  1
  O  O12  1  0.00000000  0.73485400  0.95253900  1
  O  O13  1  0.50000000  0.82612300  0.20331200  1
