# generated using pymatgen
data_Li2Ti2NiO6
_symmetry_space_group_name_H-M   'P 1'
_cell_length_a   5.10499041
_cell_length_b   8.98417649
_cell_length_c   10.37591800
_cell_angle_alpha   90.00000000
_cell_angle_beta   90.00000000
_cell_angle_gamma   90.00000000
_symmetry_Int_Tables_number   1
_chemical_formula_structural   Li2Ti2NiO6
_chemical_formula_sum   'Li8 Ti8 Ni4 O24'
_cell_volume   475.88250147
_cell_formula_units_Z   4
loop_
 _symmetry_equiv_pos_site_id
 _symmetry_equiv_pos_as_xyz
  1  'x, y, z'
loop_
 _atom_site_type_symbol
 _atom_site_label
 _atom_site_symmetry_multiplicity
 _atom_site_fract_x
 _atom_site_fract_y
 _atom_site_fract_z
 _atom_site_occupancy
  Li  Li0  1  0.41506200  0.25000000  0.75000000  1
  Li  Li1  1  0.58493800  0.25000000  0.25000000  1
  Li  Li2  1  0.91506200  0.25000000  0.75000000  1
  Li  Li3  1  0.08493800  0.25000000  0.25000000  1
  Li  Li4  1  0.91506200  0.75000000  0.75000000  1
  Li  Li5  1  0.08493800  0.75000000  0.25000000  1
  Li  Li6  1  0.41506200  0.75000000  0.75000000  1
  Li  Li7  1  0.58493800  0.75000000  0.25000000  1
  Ti  Ti8  1  0.50000000  0.16079975  0.50000000  1
  Ti  Ti9  1  0.50000000  0.33920025  0.00000000  1
  Ti  Ti10  1  0.00000000  0.16079975  0.00000000  1
  Ti  Ti11  1  0.00000000  0.33920025  0.50000000  1
  Ti  Ti12  1  0.00000000  0.66079975  0.50000000  1
  Ti  Ti13  1  0.00000000  0.83920025  0.00000000  1
  Ti  Ti14  1  0.50000000  0.66079975  0.00000000  1
  Ti  Ti15  1  0.50000000  0.83920025  0.50000000  1
  Ni  Ni16  1  0.00000000  0.50000000  0.00000000  1
  Ni  Ni17  1  0.50000000  0.50000000  0.50000000  1
  Ni  Ni18  1  0.50000000  0.00000000  0.00000000  1
  Ni  Ni19  1  0.00000000  0.00000000  0.50000000  1
  O  O20  1  0.15404700  0.50000000  0.59863400  1
  O  O21  1  0.34595300  0.50000000  0.09863400  1
  O  O22  1  0.65404700  0.50000000  0.90136600  1
  O  O23  1  0.84595300  0.50000000  0.40136600  1
  O  O24  1  0.32203925  0.18206400  0.10726800  1
  O  O25  1  0.17796075  0.31793600  0.89273200  1
  O  O26  1  0.32203925  0.31793600  0.39273200  1
  O  O27  1  0.67796075  0.31793600  0.60726800  1
  O  O28  1  0.67796075  0.18206400  0.89273200  1
  O  O29  1  0.82203925  0.18206400  0.39273200  1
  O  O30  1  0.17796075  0.18206400  0.60726800  1
  O  O31  1  0.82203925  0.31793600  0.10726800  1
  O  O32  1  0.65404700  0.00000000  0.59863400  1
  O  O33  1  0.84595300  0.00000000  0.09863400  1
  O  O34  1  0.15404700  0.00000000  0.90136600  1
  O  O35  1  0.34595300  0.00000000  0.40136600  1
  O  O36  1  0.82203925  0.68206400  0.10726800  1
  O  O37  1  0.67796075  0.81793600  0.89273200  1
  O  O38  1  0.82203925  0.81793600  0.39273200  1
  O  O39  1  0.17796075  0.81793600  0.60726800  1
  O  O40  1  0.17796075  0.68206400  0.89273200  1
  O  O41  1  0.32203925  0.68206400  0.39273200  1
  O  O42  1  0.67796075  0.68206400  0.60726800  1
  O  O43  1  0.32203925  0.81793600  0.10726800  1
