# generated using pymatgen
data_BaSnF6
_symmetry_space_group_name_H-M   'P 1'
_cell_length_a   7.60783154
_cell_length_b   7.60783154
_cell_length_c   7.54059621
_cell_angle_alpha   90.00000000
_cell_angle_beta   90.00000000
_cell_angle_gamma   120.00000000
_symmetry_Int_Tables_number   1
_chemical_formula_structural   BaSnF6
_chemical_formula_sum   'Ba3 Sn3 F18'
_cell_volume   377.97066304
_cell_formula_units_Z   3
loop_
 _symmetry_equiv_pos_site_id
 _symmetry_equiv_pos_as_xyz
  1  'x, y, z'
loop_
 _atom_site_type_symbol
 _atom_site_label
 _atom_site_symmetry_multiplicity
 _atom_site_fract_x
 _atom_site_fract_y
 _atom_site_fract_z
 _atom_site_occupancy
  Ba  Ba0  1  0.00000000  0.00000000  0.00000000  1
  Ba  Ba1  1  0.66666667  0.33333333  0.33333333  1
  Ba  Ba2  1  0.33333333  0.66666667  0.66666667  1
  Sn  Sn3  1  0.00000000  0.00000000  0.50000000  1
  Sn  Sn4  1  0.66666667  0.33333333  0.83333333  1
  Sn  Sn5  1  0.33333333  0.66666667  0.16666667  1
  F  F6  1  0.76470467  0.84717333  0.66493133  1
  F  F7  1  0.15282667  0.91753133  0.66493133  1
  F  F8  1  0.91753133  0.76470467  0.33506867  1
  F  F9  1  0.84717333  0.08246867  0.33506867  1
  F  F10  1  0.23529533  0.15282667  0.33506867  1
  F  F11  1  0.08246867  0.23529533  0.66493133  1
  F  F12  1  0.43137133  0.18050667  0.99826467  1
  F  F13  1  0.81949333  0.25086467  0.99826467  1
  F  F14  1  0.58419800  0.09803800  0.66840200  1
  F  F15  1  0.51384000  0.41580200  0.66840200  1
  F  F16  1  0.90196200  0.48616000  0.66840200  1
  F  F17  1  0.74913533  0.56862867  0.99826467  1
  F  F18  1  0.09803800  0.51384000  0.33159800  1
  F  F19  1  0.48616000  0.58419800  0.33159800  1
  F  F20  1  0.25086467  0.43137133  0.00173533  1
  F  F21  1  0.18050667  0.74913533  0.00173533  1
  F  F22  1  0.56862867  0.81949333  0.00173533  1
  F  F23  1  0.41580200  0.90196200  0.33159800  1
