# generated using pymatgen
data_MnOF
_symmetry_space_group_name_H-M   'P 1'
_cell_length_a   10.39191417
_cell_length_b   3.80692721
_cell_length_c   4.39268150
_cell_angle_alpha   90.00000000
_cell_angle_beta   114.41730424
_cell_angle_gamma   90.00000000
_symmetry_Int_Tables_number   1
_chemical_formula_structural   MnOF
_chemical_formula_sum   'Mn4 O4 F4'
_cell_volume   158.23693500
_cell_formula_units_Z   4
loop_
 _symmetry_equiv_pos_site_id
 _symmetry_equiv_pos_as_xyz
  1  'x, y, z'
loop_
 _atom_site_type_symbol
 _atom_site_label
 _atom_site_symmetry_multiplicity
 _atom_site_fract_x
 _atom_site_fract_y
 _atom_site_fract_z
 _atom_site_occupancy
  Mn  Mn0  1  0.13377250  0.00000000  0.38351750  1
  Mn  Mn1  1  0.86622750  0.00000000  0.61648250  1
  Mn  Mn2  1  0.63377250  0.50000000  0.38351750  1
  Mn  Mn3  1  0.36622750  0.50000000  0.61648250  1
  O  O4  1  0.16502150  0.50000000  0.40343150  1
  O  O5  1  0.83497850  0.50000000  0.59656850  1
  O  O6  1  0.66502150  0.00000000  0.40343150  1
  O  O7  1  0.33497850  0.00000000  0.59656850  1
  F  F8  1  0.07342200  0.00000000  0.82181850  1
  F  F9  1  0.92657800  0.00000000  0.17818150  1
  F  F10  1  0.57342200  0.50000000  0.82181850  1
  F  F11  1  0.42657800  0.50000000  0.17818150  1
