# generated using pymatgen
data_Zn(PO3)2
_symmetry_space_group_name_H-M   'P 1'
_cell_length_a   9.96341200
_cell_length_b   9.10464600
_cell_length_c   5.02498732
_cell_angle_alpha   90.00000000
_cell_angle_beta   109.14119040
_cell_angle_gamma   90.00000000
_symmetry_Int_Tables_number   1
_chemical_formula_structural   Zn(PO3)2
_chemical_formula_sum   'Zn4 P8 O24'
_cell_volume   430.63191465
_cell_formula_units_Z   4
loop_
 _symmetry_equiv_pos_site_id
 _symmetry_equiv_pos_as_xyz
  1  'x, y, z'
loop_
 _atom_site_type_symbol
 _atom_site_label
 _atom_site_symmetry_multiplicity
 _atom_site_fract_x
 _atom_site_fract_y
 _atom_site_fract_z
 _atom_site_occupancy
  Zn  Zn0  1  0.00000000  0.87580200  0.25000000  1
  Zn  Zn1  1  0.00000000  0.12419800  0.75000000  1
  Zn  Zn2  1  0.50000000  0.37580200  0.25000000  1
  Zn  Zn3  1  0.50000000  0.62419800  0.75000000  1
  P  P4  1  0.78607900  0.58886100  0.25572200  1
  P  P5  1  0.21392100  0.58886100  0.24427800  1
  P  P6  1  0.21392100  0.41113900  0.74427800  1
  P  P7  1  0.78607900  0.41113900  0.75572200  1
  P  P8  1  0.28607900  0.08886100  0.25572200  1
  P  P9  1  0.71392100  0.08886100  0.24427800  1
  P  P10  1  0.71392100  0.91113900  0.74427800  1
  P  P11  1  0.28607900  0.91113900  0.75572200  1
  O  O12  1  0.85115500  0.73822000  0.30896700  1
  O  O13  1  0.14884500  0.73822000  0.19103300  1
  O  O14  1  0.14884500  0.26178000  0.69103300  1
  O  O15  1  0.85115500  0.26178000  0.80896700  1
  O  O16  1  0.62556400  0.57332400  0.15240800  1
  O  O17  1  0.37443600  0.57332400  0.34759200  1
  O  O18  1  0.14979250  0.49436750  0.96008400  1
  O  O19  1  0.85020750  0.49436750  0.53991600  1
  O  O20  1  0.85020750  0.50563250  0.03991600  1
  O  O21  1  0.14979250  0.50563250  0.46008400  1
  O  O22  1  0.62556400  0.42667600  0.65240800  1
  O  O23  1  0.37443600  0.42667600  0.84759200  1
  O  O24  1  0.35115500  0.23822000  0.30896700  1
  O  O25  1  0.64884500  0.23822000  0.19103300  1
  O  O26  1  0.64884500  0.76178000  0.69103300  1
  O  O27  1  0.35115500  0.76178000  0.80896700  1
  O  O28  1  0.12556400  0.07332400  0.15240800  1
  O  O29  1  0.87443600  0.07332400  0.34759200  1
  O  O30  1  0.64979250  0.99436750  0.96008400  1
  O  O31  1  0.35020750  0.99436750  0.53991600  1
  O  O32  1  0.35020750  0.00563250  0.03991600  1
  O  O33  1  0.64979250  0.00563250  0.46008400  1
  O  O34  1  0.12556400  0.92667600  0.65240800  1
  O  O35  1  0.87443600  0.92667600  0.84759200  1
