# generated using pymatgen
data_Ba2YI7
_symmetry_space_group_name_H-M   'P 1'
_cell_length_a   8.34697600
_cell_length_b   15.18447300
_cell_length_c   14.87646453
_cell_angle_alpha   90.00000000
_cell_angle_beta   101.36333576
_cell_angle_gamma   90.00000000
_symmetry_Int_Tables_number   1
_chemical_formula_structural   Ba2YI7
_chemical_formula_sum   'Ba8 Y4 I28'
_cell_volume   1848.54827124
_cell_formula_units_Z   4
loop_
 _symmetry_equiv_pos_site_id
 _symmetry_equiv_pos_as_xyz
  1  'x, y, z'
loop_
 _atom_site_type_symbol
 _atom_site_label
 _atom_site_symmetry_multiplicity
 _atom_site_fract_x
 _atom_site_fract_y
 _atom_site_fract_z
 _atom_site_occupancy
  Ba  Ba0  1  0.22882000  0.45536100  0.76626000  1
  Ba  Ba1  1  0.24579400  0.87066000  0.64157700  1
  Ba  Ba2  1  0.22985500  0.20534900  0.14376700  1
  Ba  Ba3  1  0.33364800  0.63869600  0.25044400  1
  Ba  Ba4  1  0.66635200  0.13869600  0.74955600  1
  Ba  Ba5  1  0.77014500  0.70534900  0.85623300  1
  Ba  Ba6  1  0.75420600  0.37066000  0.35842300  1
  Ba  Ba7  1  0.77118000  0.95536100  0.23374000  1
  Y  Y8  1  0.16649500  0.15569900  0.55193800  1
  Y  Y9  1  0.18331600  0.92253600  0.05235200  1
  Y  Y10  1  0.81668400  0.42253600  0.94764800  1
  Y  Y11  1  0.83350500  0.65569900  0.44806200  1
  I  I12  1  0.05101800  0.28655000  0.89475500  1
  I  I13  1  0.08261500  0.56174400  0.99326500  1
  I  I14  1  0.05127300  0.49950700  0.51367700  1
  I  I15  1  0.12737400  0.83980400  0.86508700  1
  I  I16  1  0.12651600  0.76008100  0.40921200  1
  I  I17  1  0.12665000  0.24279300  0.36648000  1
  I  I18  1  0.20916700  0.08417800  0.74641600  1
  I  I19  1  0.20161500  0.99144400  0.24958200  1
  I  I20  1  0.38529000  0.65963800  0.71286400  1
  I  I21  1  0.38358300  0.41482700  0.20681200  1
  I  I22  1  0.40208400  0.30678000  0.62143300  1
  I  I23  1  0.53192000  0.29452000  0.89399400  1
  I  I24  1  0.46472200  0.04430600  0.53730900  1
  I  I25  1  0.55582600  0.55247300  0.97027100  1
  I  I26  1  0.44417400  0.05247300  0.02972900  1
  I  I27  1  0.53527800  0.54430600  0.46269100  1
  I  I28  1  0.46808000  0.79452000  0.10600600  1
  I  I29  1  0.59791600  0.80678000  0.37856700  1
  I  I30  1  0.61641700  0.91482700  0.79318800  1
  I  I31  1  0.61471000  0.15963800  0.28713600  1
  I  I32  1  0.79838500  0.49144400  0.75041800  1
  I  I33  1  0.79083300  0.58417800  0.25358400  1
  I  I34  1  0.87335000  0.74279300  0.63352000  1
  I  I35  1  0.87348400  0.26008100  0.59078800  1
  I  I36  1  0.87262600  0.33980400  0.13491300  1
  I  I37  1  0.94872700  0.99950700  0.48632300  1
  I  I38  1  0.91738500  0.06174400  0.00673500  1
  I  I39  1  0.94898200  0.78655000  0.10524500  1
