# generated using pymatgen
data_Li2Fe4OF8
_symmetry_space_group_name_H-M   'P 1'
_cell_length_a   15.23542000
_cell_length_b   9.20317600
_cell_length_c   10.67449053
_cell_angle_alpha   90.00000000
_cell_angle_beta   95.00928286
_cell_angle_gamma   90.00000000
_symmetry_Int_Tables_number   1
_chemical_formula_structural   Li2Fe4OF8
_chemical_formula_sum   'Li16 Fe32 O8 F64'
_cell_volume   1490.99909252
_cell_formula_units_Z   8
loop_
 _symmetry_equiv_pos_site_id
 _symmetry_equiv_pos_as_xyz
  1  'x, y, z'
loop_
 _atom_site_type_symbol
 _atom_site_label
 _atom_site_symmetry_multiplicity
 _atom_site_fract_x
 _atom_site_fract_y
 _atom_site_fract_z
 _atom_site_occupancy
  Li  Li0  1  0.32710550  0.00248850  0.70814100  1
  Li  Li1  1  0.32710550  0.99751150  0.20814100  1
  Li  Li2  1  0.99539400  0.99585000  0.49513500  1
  Li  Li3  1  0.99539400  0.00415000  0.99513500  1
  Li  Li4  1  0.66187250  0.98593950  0.79722300  1
  Li  Li5  1  0.66187250  0.01406050  0.29722300  1
  Li  Li6  1  0.84934000  0.85024000  0.74529300  1
  Li  Li7  1  0.84934000  0.14976000  0.24529300  1
  Li  Li8  1  0.82710550  0.50248850  0.70814100  1
  Li  Li9  1  0.82710550  0.49751150  0.20814100  1
  Li  Li10  1  0.49539400  0.49585000  0.49513500  1
  Li  Li11  1  0.49539400  0.50415000  0.99513500  1
  Li  Li12  1  0.16187250  0.48593950  0.79722300  1
  Li  Li13  1  0.16187250  0.51406050  0.29722300  1
  Li  Li14  1  0.34934000  0.35024000  0.74529300  1
  Li  Li15  1  0.34934000  0.64976000  0.24529300  1
  Fe  Fe16  1  0.16027500  0.84737500  0.75526600  1
  Fe  Fe17  1  0.16027500  0.15262500  0.25526600  1
  Fe  Fe18  1  0.21256800  0.11987400  0.94255500  1
  Fe  Fe19  1  0.21256800  0.88012600  0.44255500  1
  Fe  Fe20  1  0.32907700  0.82301600  0.95529300  1
  Fe  Fe21  1  0.32907700  0.17698400  0.45529300  1
  Fe  Fe22  1  0.47596850  0.16463050  0.94785100  1
  Fe  Fe23  1  0.47596850  0.83536950  0.44785100  1
  Fe  Fe24  1  0.50232350  0.66033450  0.74894800  1
  Fe  Fe25  1  0.50232350  0.33966550  0.24894800  1
  Fe  Fe26  1  0.51564600  0.16382900  0.53025800  1
  Fe  Fe27  1  0.51564600  0.83617100  0.03025800  1
  Fe  Fe28  1  0.66722000  0.81362700  0.54398300  1
  Fe  Fe29  1  0.66722000  0.18637300  0.04398300  1
  Fe  Fe30  1  0.79281000  0.14874900  0.58395500  1
  Fe  Fe31  1  0.79281000  0.85125100  0.08395500  1
  Fe  Fe32  1  0.66027500  0.34737500  0.75526600  1
  Fe  Fe33  1  0.66027500  0.65262500  0.25526600  1
  Fe  Fe34  1  0.71256800  0.61987400  0.94255500  1
  Fe  Fe35  1  0.71256800  0.38012600  0.44255500  1
  Fe  Fe36  1  0.82907700  0.32301600  0.95529300  1
  Fe  Fe37  1  0.82907700  0.67698400  0.45529300  1
  Fe  Fe38  1  0.97596850  0.66463050  0.94785100  1
  Fe  Fe39  1  0.97596850  0.33536950  0.44785100  1
  Fe  Fe40  1  0.00232350  0.16033450  0.74894800  1
  Fe  Fe41  1  0.00232350  0.83966550  0.24894800  1
  Fe  Fe42  1  0.01564600  0.66382900  0.53025800  1
  Fe  Fe43  1  0.01564600  0.33617100  0.03025800  1
  Fe  Fe44  1  0.16722000  0.31362700  0.54398300  1
  Fe  Fe45  1  0.16722000  0.68637300  0.04398300  1
  Fe  Fe46  1  0.29281000  0.64874900  0.58395500  1
  Fe  Fe47  1  0.29281000  0.35125100  0.08395500  1
  O  O48  1  0.25513550  0.96162750  0.85327600  1
  O  O49  1  0.24919550  0.83624650  0.61884600  1
  O  O50  1  0.25513550  0.03837250  0.35327600  1
  O  O51  1  0.24919550  0.16375350  0.11884600  1
  O  O52  1  0.75513550  0.46162750  0.85327600  1
  O  O53  1  0.74919550  0.33624650  0.61884600  1
  O  O54  1  0.75513550  0.53837250  0.35327600  1
  O  O55  1  0.74919550  0.66375350  0.11884600  1
  F  F56  1  0.06964500  0.99617100  0.66360000  1
  F  F57  1  0.06964500  0.00382900  0.16360000  1
  F  F58  1  0.26091000  0.17205100  0.61829900  1
  F  F59  1  0.26091000  0.82794900  0.11829900  1
  F  F60  1  0.40227450  0.16823550  0.79421800  1
  F  F61  1  0.43725550  0.82968550  0.83889900  1
  F  F62  1  0.40227450  0.83176450  0.29421800  1
  F  F63  1  0.43725550  0.17031450  0.33889900  1
  F  F64  1  0.41579550  0.32111950  0.55354700  1
  F  F65  1  0.42191500  0.00023200  0.55439100  1
  F  F66  1  0.42803900  0.66788100  0.56342200  1
  F  F67  1  0.41579550  0.67888050  0.05354700  1
  F  F68  1  0.42191500  0.99976800  0.05439100  1
  F  F69  1  0.42803900  0.33211900  0.06342200  1
  F  F70  1  0.57625050  0.67019750  0.93168100  1
  F  F71  1  0.58360500  0.01457600  0.95203200  1
  F  F72  1  0.57654450  0.32060550  0.93172200  1
  F  F73  1  0.57625050  0.32980250  0.43168100  1
  F  F74  1  0.58360500  0.98542400  0.45203200  1
  F  F75  1  0.57654450  0.67939450  0.43172200  1
  F  F76  1  0.58600400  0.82099100  0.68631000  1
  F  F77  1  0.58942450  0.16117250  0.69447600  1
  F  F78  1  0.58600400  0.17900900  0.18631000  1
  F  F79  1  0.58942450  0.83882750  0.19447600  1
  F  F80  1  0.73067950  0.15757250  0.88417800  1
  F  F81  1  0.74943000  0.83914800  0.88804100  1
  F  F82  1  0.73067950  0.84242750  0.38417800  1
  F  F83  1  0.75089200  0.96470100  0.65028100  1
  F  F84  1  0.74943000  0.16085200  0.38804100  1
  F  F85  1  0.75089200  0.03529900  0.15028100  1
  F  F86  1  0.92740650  0.00536750  0.81887800  1
  F  F87  1  0.92740650  0.99463250  0.31887800  1
  F  F88  1  0.56964500  0.49617100  0.66360000  1
  F  F89  1  0.56964500  0.50382900  0.16360000  1
  F  F90  1  0.76091000  0.67205100  0.61829900  1
  F  F91  1  0.76091000  0.32794900  0.11829900  1
  F  F92  1  0.90227450  0.66823550  0.79421800  1
  F  F93  1  0.93725550  0.32968550  0.83889900  1
  F  F94  1  0.90227450  0.33176450  0.29421800  1
  F  F95  1  0.93725550  0.67031450  0.33889900  1
  F  F96  1  0.91579550  0.82111950  0.55354700  1
  F  F97  1  0.92191500  0.50023200  0.55439100  1
  F  F98  1  0.92803900  0.16788100  0.56342200  1
  F  F99  1  0.91579550  0.17888050  0.05354700  1
  F  F100  1  0.92191500  0.49976800  0.05439100  1
  F  F101  1  0.92803900  0.83211900  0.06342200  1
  F  F102  1  0.07625050  0.17019750  0.93168100  1
  F  F103  1  0.08360500  0.51457600  0.95203200  1
  F  F104  1  0.07654450  0.82060550  0.93172200  1
  F  F105  1  0.07625050  0.82980250  0.43168100  1
  F  F106  1  0.08360500  0.48542400  0.45203200  1
  F  F107  1  0.07654450  0.17939450  0.43172200  1
  F  F108  1  0.08600400  0.32099100  0.68631000  1
  F  F109  1  0.08942450  0.66117250  0.69447600  1
  F  F110  1  0.08600400  0.67900900  0.18631000  1
  F  F111  1  0.08942450  0.33882750  0.19447600  1
  F  F112  1  0.23067950  0.65757250  0.88417800  1
  F  F113  1  0.24943000  0.33914800  0.88804100  1
  F  F114  1  0.23067950  0.34242750  0.38417800  1
  F  F115  1  0.25089200  0.46470100  0.65028100  1
  F  F116  1  0.24943000  0.66085200  0.38804100  1
  F  F117  1  0.25089200  0.53529900  0.15028100  1
  F  F118  1  0.42740650  0.50536750  0.81887800  1
  F  F119  1  0.42740650  0.49463250  0.31887800  1
