# generated using pymatgen
data_NaAlPO4F
_symmetry_space_group_name_H-M   'P 1'
_cell_length_a   6.50893200
_cell_length_b   8.31280000
_cell_length_c   6.99412691
_cell_angle_alpha   90.00000000
_cell_angle_beta   115.69884840
_cell_angle_gamma   90.00000000
_symmetry_Int_Tables_number   1
_chemical_formula_structural   NaAlPO4F
_chemical_formula_sum   'Na4 Al4 P4 O16 F4'
_cell_volume   341.00181455
_cell_formula_units_Z   4
loop_
 _symmetry_equiv_pos_site_id
 _symmetry_equiv_pos_as_xyz
  1  'x, y, z'
loop_
 _atom_site_type_symbol
 _atom_site_label
 _atom_site_symmetry_multiplicity
 _atom_site_fract_x
 _atom_site_fract_y
 _atom_site_fract_z
 _atom_site_occupancy
  Na  Na0  1  0.50000000  0.16803600  0.75000000  1
  Na  Na1  1  0.50000000  0.83196400  0.25000000  1
  Na  Na2  1  0.00000000  0.66803600  0.75000000  1
  Na  Na3  1  0.00000000  0.33196400  0.25000000  1
  Al  Al4  1  0.00000000  0.00000000  0.00000000  1
  Al  Al5  1  0.00000000  0.00000000  0.50000000  1
  Al  Al6  1  0.50000000  0.50000000  0.00000000  1
  Al  Al7  1  0.50000000  0.50000000  0.50000000  1
  P  P8  1  0.50000000  0.81698000  0.75000000  1
  P  P9  1  0.50000000  0.18302000  0.25000000  1
  P  P10  1  0.00000000  0.31698000  0.75000000  1
  P  P11  1  0.00000000  0.68302000  0.25000000  1
  O  O12  1  0.40779000  0.29048300  0.37891200  1
  O  O13  1  0.59221000  0.29048300  0.12108800  1
  O  O14  1  0.69184750  0.07002750  0.39956600  1
  O  O15  1  0.30815250  0.07002750  0.10043400  1
  O  O16  1  0.30815250  0.92997250  0.60043400  1
  O  O17  1  0.69184750  0.92997250  0.89956600  1
  O  O18  1  0.59221000  0.70951700  0.62108800  1
  O  O19  1  0.40779000  0.70951700  0.87891200  1
  O  O20  1  0.90779000  0.79048300  0.37891200  1
  O  O21  1  0.09221000  0.79048300  0.12108800  1
  O  O22  1  0.19184750  0.57002750  0.39956600  1
  O  O23  1  0.80815250  0.57002750  0.10043400  1
  O  O24  1  0.80815250  0.42997250  0.60043400  1
  O  O25  1  0.19184750  0.42997250  0.89956600  1
  O  O26  1  0.09221000  0.20951700  0.62108800  1
  O  O27  1  0.90779000  0.20951700  0.87891200  1
  F  F28  1  0.50000000  0.56953200  0.25000000  1
  F  F29  1  0.50000000  0.43046800  0.75000000  1
  F  F30  1  0.00000000  0.06953200  0.25000000  1
  F  F31  1  0.00000000  0.93046800  0.75000000  1
