# generated using pymatgen
data_NaZn4H18SClO16
_symmetry_space_group_name_H-M   'P 1'
_cell_length_a   8.47123550
_cell_length_b   8.47123550
_cell_length_c   13.18980700
_cell_angle_alpha   90.00000000
_cell_angle_beta   90.00000000
_cell_angle_gamma   120.00000000
_symmetry_Int_Tables_number   1
_chemical_formula_structural   NaZn4H18SClO16
_chemical_formula_sum   'Na2 Zn8 H36 S2 Cl2 O32'
_cell_volume   819.71443505
_cell_formula_units_Z   2
loop_
 _symmetry_equiv_pos_site_id
 _symmetry_equiv_pos_as_xyz
  1  'x, y, z'
loop_
 _atom_site_type_symbol
 _atom_site_label
 _atom_site_symmetry_multiplicity
 _atom_site_fract_x
 _atom_site_fract_y
 _atom_site_fract_z
 _atom_site_occupancy
  Na  Na0  1  0.33333333  0.66666667  0.09189000  1
  Na  Na1  1  0.66666667  0.33333333  0.90811000  1
  Zn  Zn2  1  0.12752433  0.71362667  0.49258600  1
  Zn  Zn3  1  0.00000000  0.00000000  0.63753900  1
  Zn  Zn4  1  0.00000000  0.00000000  0.36246100  1
  Zn  Zn5  1  0.28637333  0.41389767  0.49258600  1
  Zn  Zn6  1  0.58610233  0.87247567  0.49258600  1
  Zn  Zn7  1  0.41389767  0.12752433  0.50741400  1
  Zn  Zn8  1  0.71362667  0.58610233  0.50741400  1
  Zn  Zn9  1  0.87247567  0.28637333  0.50741400  1
  H  H10  1  0.00883133  0.45965967  0.21589600  1
  H  H11  1  0.23402533  0.90903067  0.65480500  1
  H  H12  1  0.24136333  0.92398367  0.20477800  1
  H  H13  1  0.27251133  0.95172167  0.99824000  1
  H  H14  1  0.24196633  0.82242267  0.90753500  1
  H  H15  1  0.11938833  0.47851967  0.35478000  1
  H  H16  1  0.04827833  0.32078967  0.99824000  1
  H  H17  1  0.35913133  0.88061167  0.35478000  1
  H  H18  1  0.07601633  0.31737967  0.20477800  1
  H  H19  1  0.09096933  0.32499467  0.65480500  1
  H  H20  1  0.17757733  0.41954367  0.90753500  1
  H  H21  1  0.45082833  0.99116867  0.21589600  1
  H  H22  1  0.31737967  0.24136333  0.79522200  1
  H  H23  1  0.32499467  0.23402533  0.34519500  1
  H  H24  1  0.32078967  0.27251133  0.00176000  1
  H  H25  1  0.52148033  0.64086867  0.35478000  1
  H  H26  1  0.58045633  0.75803367  0.90753500  1
  H  H27  1  0.45965967  0.45082833  0.78410400  1
  H  H28  1  0.54034033  0.54917167  0.21589600  1
  H  H29  1  0.41954367  0.24196633  0.09246500  1
  H  H30  1  0.47851967  0.35913133  0.64522000  1
  H  H31  1  0.67921033  0.72748867  0.99824000  1
  H  H32  1  0.67500533  0.76597467  0.65480500  1
  H  H33  1  0.68262033  0.75863667  0.20477800  1
  H  H34  1  0.54917167  0.00883133  0.78410400  1
  H  H35  1  0.82242267  0.58045633  0.09246500  1
  H  H36  1  0.90903067  0.67500533  0.34519500  1
  H  H37  1  0.92398367  0.68262033  0.79522200  1
  H  H38  1  0.64086867  0.11938833  0.64522000  1
  H  H39  1  0.95172167  0.67921033  0.00176000  1
  H  H40  1  0.88061167  0.52148033  0.64522000  1
  H  H41  1  0.75803367  0.17757733  0.09246500  1
  H  H42  1  0.72748867  0.04827833  0.00176000  1
  H  H43  1  0.75863667  0.07601633  0.79522200  1
  H  H44  1  0.76597467  0.09096933  0.34519500  1
  H  H45  1  0.99116867  0.54034033  0.78410400  1
  S  S46  1  0.33333333  0.66666667  0.72320000  1
  S  S47  1  0.66666667  0.33333333  0.27680000  1
  Cl  Cl48  1  0.00000000  0.00000000  0.81107300  1
  Cl  Cl49  1  0.00000000  0.00000000  0.18892700  1
  O  O50  1  0.18637733  0.93694267  0.59295600  1
  O  O51  1  0.22139933  0.82154367  0.98078100  1
  O  O52  1  0.10554733  0.47898267  0.42926900  1
  O  O53  1  0.32830633  0.88079467  0.21545500  1
  O  O54  1  0.11920533  0.44751167  0.21545500  1
  O  O55  1  0.32041833  0.82651267  0.76127200  1
  O  O56  1  0.37343533  0.89445267  0.42926900  1
  O  O57  1  0.17348733  0.49390567  0.76127200  1
  O  O58  1  0.06305733  0.24943467  0.59295600  1
  O  O59  1  0.17845633  0.39985567  0.98078100  1
  O  O60  1  0.33333333  0.66666667  0.60976600  1
  O  O61  1  0.24943467  0.18637733  0.40704400  1
  O  O62  1  0.50609433  0.67958167  0.76127200  1
  O  O63  1  0.52101733  0.62656467  0.42926900  1
  O  O64  1  0.60014433  0.77860067  0.98078100  1
  O  O65  1  0.55248833  0.67169367  0.21545500  1
  O  O66  1  0.44751167  0.32830633  0.78454500  1
  O  O67  1  0.39985567  0.22139933  0.01921900  1
  O  O68  1  0.47898267  0.37343533  0.57073100  1
  O  O69  1  0.49390567  0.32041833  0.23872800  1
  O  O70  1  0.75056533  0.81362267  0.59295600  1
  O  O71  1  0.66666667  0.33333333  0.39023400  1
  O  O72  1  0.82154367  0.60014433  0.01921900  1
  O  O73  1  0.93694267  0.75056533  0.40704400  1
  O  O74  1  0.82651267  0.50609433  0.23872800  1
  O  O75  1  0.62656467  0.10554733  0.57073100  1
  O  O76  1  0.67958167  0.17348733  0.23872800  1
  O  O77  1  0.88079467  0.55248833  0.78454500  1
  O  O78  1  0.67169367  0.11920533  0.78454500  1
  O  O79  1  0.89445267  0.52101733  0.57073100  1
  O  O80  1  0.77860067  0.17845633  0.01921900  1
  O  O81  1  0.81362267  0.06305733  0.40704400  1
