# generated using pymatgen
data_AgH36S8Br2(N3O4)3
_symmetry_space_group_name_H-M   'P 1'
_cell_length_a   13.30516600
_cell_length_b   13.30516600
_cell_length_c   16.54855200
_cell_angle_alpha   90.00000000
_cell_angle_beta   90.00000000
_cell_angle_gamma   90.00000000
_symmetry_Int_Tables_number   1
_chemical_formula_structural   AgH36S8Br2(N3O4)3
_chemical_formula_sum   'Ag4 H144 S32 Br8 N36 O48'
_cell_volume   2929.54783412
_cell_formula_units_Z   4
loop_
 _symmetry_equiv_pos_site_id
 _symmetry_equiv_pos_as_xyz
  1  'x, y, z'
loop_
 _atom_site_type_symbol
 _atom_site_label
 _atom_site_symmetry_multiplicity
 _atom_site_fract_x
 _atom_site_fract_y
 _atom_site_fract_z
 _atom_site_occupancy
  Ag  Ag0  1  0.00000000  0.00000000  0.00000000  1
  Ag  Ag1  1  0.00000000  0.50000000  0.25000000  1
  Ag  Ag2  1  0.50000000  0.50000000  0.50000000  1
  Ag  Ag3  1  0.50000000  0.00000000  0.75000000  1
  H  H4  1  0.69356200  0.41000800  0.39701800  1
  H  H5  1  0.72282550  0.50003750  0.32785450  1
  H  H6  1  0.77717450  0.50003750  0.42214550  1
  H  H7  1  0.78012450  0.24173250  0.55576550  1
  H  H8  1  0.78012450  0.25826750  0.69423450  1
  H  H9  1  0.80643800  0.41000800  0.35298200  1
  H  H10  1  0.81852850  0.23031650  0.45980150  1
  H  H11  1  0.91000800  0.80643800  0.10298200  1
  H  H12  1  0.91000800  0.69356200  0.14701800  1
  H  H13  1  0.95816050  0.04829650  0.22914750  1
  H  H14  1  0.95906150  0.04853750  0.69937250  1
  H  H15  1  0.00003750  0.72282550  0.07785450  1
  H  H16  1  0.00003750  0.77717450  0.17214550  1
  H  H17  1  0.99996250  0.27717450  0.07785450  1
  H  H18  1  0.99996250  0.22282550  0.17214550  1
  H  H19  1  0.00460550  0.06365450  0.46376350  1
  H  H20  1  0.04183950  0.54829650  0.02085250  1
  H  H21  1  0.04853750  0.04093850  0.30062750  1
  H  H22  1  0.04829650  0.45816050  0.47914750  1
  H  H23  1  0.04829650  0.04183950  0.77085250  1
  H  H24  1  0.06365450  0.99539450  0.53623650  1
  H  H25  1  0.08999200  0.30643800  0.14701800  1
  H  H26  1  0.08999200  0.19356200  0.10298200  1
  H  H27  1  0.12615600  0.20615100  0.48238500  1
  H  H28  1  0.19964150  0.19713150  0.73723750  1
  H  H29  1  0.19964150  0.30286850  0.51276250  1
  H  H30  1  0.19356200  0.58999200  0.35298200  1
  H  H31  1  0.20615100  0.87384400  0.51761500  1
  H  H32  1  0.19713150  0.69964150  0.98723750  1
  H  H33  1  0.69713150  0.30035850  0.76276250  1
  H  H34  1  0.22282550  0.49996250  0.42214550  1
  H  H35  1  0.23031650  0.18147150  0.54019850  1
  H  H36  1  0.24173250  0.28012450  0.80576550  1
  H  H37  1  0.24173250  0.21987550  0.44423450  1
  H  H38  1  0.25826750  0.21987550  0.30576550  1
  H  H39  1  0.25826750  0.28012450  0.94423450  1
  H  H40  1  0.26968350  0.18147150  0.20980150  1
  H  H41  1  0.26968350  0.31852850  0.04019850  1
  H  H42  1  0.27717450  0.49996250  0.32785450  1
  H  H43  1  0.80286850  0.19964150  0.26276250  1
  H  H44  1  0.30286850  0.80035850  0.48723750  1
  H  H45  1  0.29384900  0.62615600  0.01761500  1
  H  H46  1  0.29384900  0.87384400  0.23238500  1
  H  H47  1  0.30643800  0.58999200  0.39701800  1
  H  H48  1  0.30035850  0.30286850  0.23723750  1
  H  H49  1  0.30035850  0.19713150  0.01276250  1
  H  H50  1  0.31852850  0.76968350  0.29019850  1
  H  H51  1  0.37384400  0.29384900  0.98238500  1
  H  H52  1  0.37384400  0.20615100  0.26761500  1
  H  H53  1  0.43634550  0.99539450  0.21376350  1
  H  H54  1  0.43634550  0.50460550  0.03623650  1
  H  H55  1  0.45170350  0.04183950  0.97914750  1
  H  H56  1  0.45170350  0.45816050  0.27085250  1
  H  H57  1  0.45146250  0.45906150  0.80062750  1
  H  H58  1  0.45146250  0.04093850  0.44937250  1
  H  H59  1  0.45816050  0.95170350  0.52085250  1
  H  H60  1  0.45906150  0.95146250  0.05062750  1
  H  H61  1  0.49539450  0.43634550  0.96376350  1
  H  H62  1  0.49539450  0.06365450  0.28623650  1
  H  H63  1  0.50460550  0.93634550  0.28623650  1
  H  H64  1  0.54093850  0.04853750  0.05062750  1
  H  H65  1  0.54093850  0.45146250  0.19937250  1
  H  H66  1  0.54183950  0.45170350  0.72914750  1
  H  H67  1  0.54853750  0.95906150  0.44937250  1
  H  H68  1  0.56365450  0.00460550  0.21376350  1
  H  H69  1  0.62615600  0.79384900  0.26761500  1
  H  H70  1  0.68147150  0.23031650  0.29019850  1
  H  H71  1  0.68147150  0.26968350  0.95980150  1
  H  H72  1  0.70615100  0.12615600  0.23238500  1
  H  H73  1  0.71987550  0.24173250  0.19423450  1
  H  H74  1  0.71987550  0.25826750  0.05576550  1
  H  H75  1  0.73031650  0.81852850  0.20980150  1
  H  H76  1  0.19356200  0.91000800  0.89701800  1
  H  H77  1  0.22282550  0.00003750  0.82785450  1
  H  H78  1  0.27717450  0.00003750  0.92214550  1
  H  H79  1  0.28012450  0.74173250  0.05576550  1
  H  H80  1  0.28012450  0.75826750  0.19423450  1
  H  H81  1  0.30643800  0.91000800  0.85298200  1
  H  H82  1  0.31852850  0.73031650  0.95980150  1
  H  H83  1  0.41000800  0.30643800  0.60298200  1
  H  H84  1  0.41000800  0.19356200  0.64701800  1
  H  H85  1  0.45816050  0.54829650  0.72914750  1
  H  H86  1  0.45906150  0.54853750  0.19937250  1
  H  H87  1  0.50003750  0.22282550  0.57785450  1
  H  H88  1  0.50003750  0.27717450  0.67214550  1
  H  H89  1  0.49996250  0.77717450  0.57785450  1
  H  H90  1  0.49996250  0.72282550  0.67214550  1
  H  H91  1  0.50460550  0.56365450  0.96376350  1
  H  H92  1  0.54183950  0.04829650  0.52085250  1
  H  H93  1  0.54853750  0.54093850  0.80062750  1
  H  H94  1  0.54829650  0.95816050  0.97914750  1
  H  H95  1  0.54829650  0.54183950  0.27085250  1
  H  H96  1  0.56365450  0.49539450  0.03623650  1
  H  H97  1  0.58999200  0.80643800  0.64701800  1
  H  H98  1  0.58999200  0.69356200  0.60298200  1
  H  H99  1  0.62615600  0.70615100  0.98238500  1
  H  H100  1  0.69964150  0.69713150  0.23723750  1
  H  H101  1  0.69964150  0.80286850  0.01276250  1
  H  H102  1  0.69356200  0.08999200  0.85298200  1
  H  H103  1  0.70615100  0.37384400  0.01761500  1
  H  H104  1  0.69713150  0.19964150  0.48723750  1
  H  H105  1  0.19713150  0.80035850  0.26276250  1
  H  H106  1  0.72282550  0.99996250  0.92214550  1
  H  H107  1  0.73031650  0.68147150  0.04019850  1
  H  H108  1  0.74173250  0.78012450  0.30576550  1
  H  H109  1  0.74173250  0.71987550  0.94423450  1
  H  H110  1  0.75826750  0.71987550  0.80576550  1
  H  H111  1  0.75826750  0.78012450  0.44423450  1
  H  H112  1  0.76968350  0.68147150  0.70980150  1
  H  H113  1  0.76968350  0.81852850  0.54019850  1
  H  H114  1  0.77717450  0.99996250  0.82785450  1
  H  H115  1  0.30286850  0.69964150  0.76276250  1
  H  H116  1  0.80286850  0.30035850  0.98723750  1
  H  H117  1  0.79384900  0.12615600  0.51761500  1
  H  H118  1  0.79384900  0.37384400  0.73238500  1
  H  H119  1  0.80643800  0.08999200  0.89701800  1
  H  H120  1  0.80035850  0.80286850  0.73723750  1
  H  H121  1  0.80035850  0.69713150  0.51276250  1
  H  H122  1  0.81852850  0.26968350  0.79019850  1
  H  H123  1  0.87384400  0.79384900  0.48238500  1
  H  H124  1  0.87384400  0.70615100  0.76761500  1
  H  H125  1  0.93634550  0.49539450  0.71376350  1
  H  H126  1  0.93634550  0.00460550  0.53623650  1
  H  H127  1  0.95170350  0.54183950  0.47914750  1
  H  H128  1  0.95170350  0.95816050  0.77085250  1
  H  H129  1  0.95146250  0.95906150  0.30062750  1
  H  H130  1  0.95146250  0.54093850  0.94937250  1
  H  H131  1  0.95816050  0.45170350  0.02085250  1
  H  H132  1  0.95906150  0.45146250  0.55062750  1
  H  H133  1  0.99539450  0.93634550  0.46376350  1
  H  H134  1  0.99539450  0.56365450  0.78623650  1
  H  H135  1  0.00460550  0.43634550  0.78623650  1
  H  H136  1  0.04093850  0.54853750  0.55062750  1
  H  H137  1  0.04093850  0.95146250  0.69937250  1
  H  H138  1  0.04183950  0.95170350  0.22914750  1
  H  H139  1  0.04853750  0.45906150  0.94937250  1
  H  H140  1  0.06365450  0.50460550  0.71376350  1
  H  H141  1  0.12615600  0.29384900  0.76761500  1
  H  H142  1  0.18147150  0.73031650  0.79019850  1
  H  H143  1  0.18147150  0.76968350  0.45980150  1
  H  H144  1  0.20615100  0.62615600  0.73238500  1
  H  H145  1  0.21987550  0.74173250  0.69423450  1
  H  H146  1  0.21987550  0.75826750  0.55576550  1
  H  H147  1  0.23031650  0.31852850  0.70980150  1
  S  S148  1  0.64295050  0.41445150  0.58154450  1
  S  S149  1  0.85704950  0.41445150  0.16845550  1
  S  S150  1  0.91445150  0.64295050  0.33154450  1
  S  S151  1  0.08554850  0.14295050  0.91845550  1
  S  S152  1  0.08554850  0.35704950  0.33154450  1
  S  S153  1  0.14295050  0.58554850  0.16845550  1
  S  S154  1  0.41445150  0.35704950  0.41845550  1
  S  S155  1  0.85704950  0.08554850  0.08154450  1
  S  S156  1  0.97729800  0.25248100  0.35121600  1
  S  S157  1  0.24751900  0.47729800  0.14878400  1
  S  S158  1  0.24751900  0.02270200  0.10121600  1
  S  S159  1  0.25248100  0.02270200  0.64878400  1
  S  S160  1  0.47729800  0.74751900  0.39878400  1
  S  S161  1  0.52270200  0.24751900  0.85121600  1
  S  S162  1  0.52270200  0.25248100  0.39878400  1
  S  S163  1  0.75248100  0.97729800  0.10121600  1
  S  S164  1  0.14295050  0.91445150  0.08154450  1
  S  S165  1  0.35704950  0.91445150  0.66845550  1
  S  S166  1  0.41445150  0.14295050  0.83154450  1
  S  S167  1  0.58554850  0.64295050  0.41845550  1
  S  S168  1  0.58554850  0.85704950  0.83154450  1
  S  S169  1  0.64295050  0.08554850  0.66845550  1
  S  S170  1  0.91445150  0.85704950  0.91845550  1
  S  S171  1  0.35704950  0.58554850  0.58154450  1
  S  S172  1  0.47729800  0.75248100  0.85121600  1
  S  S173  1  0.74751900  0.97729800  0.64878400  1
  S  S174  1  0.74751900  0.52270200  0.60121600  1
  S  S175  1  0.75248100  0.52270200  0.14878400  1
  S  S176  1  0.97729800  0.24751900  0.89878400  1
  S  S177  1  0.02270200  0.74751900  0.35121600  1
  S  S178  1  0.02270200  0.75248100  0.89878400  1
  S  S179  1  0.25248100  0.47729800  0.60121600  1
  Br  Br180  1  0.98930400  0.25000000  0.62500000  1
  Br  Br181  1  0.25000000  0.01069600  0.37500000  1
  Br  Br182  1  0.25000000  0.48930400  0.87500000  1
  Br  Br183  1  0.51069600  0.25000000  0.12500000  1
  Br  Br184  1  0.48930400  0.75000000  0.12500000  1
  Br  Br185  1  0.75000000  0.51069600  0.87500000  1
  Br  Br186  1  0.75000000  0.98930400  0.37500000  1
  Br  Br187  1  0.01069600  0.75000000  0.62500000  1
  N  N188  1  0.75000000  0.45646500  0.37500000  1
  N  N189  1  0.95646500  0.75000000  0.12500000  1
  N  N190  1  0.00000000  0.00000000  0.26444700  1
  N  N191  1  0.00000000  0.00000000  0.50000000  1
  N  N192  1  0.00000000  0.00000000  0.73555300  1
  N  N193  1  0.04353500  0.25000000  0.12500000  1
  N  N194  1  0.19888500  0.22785500  0.49577100  1
  N  N195  1  0.22785500  0.80111500  0.50422900  1
  N  N196  1  0.25000000  0.54353500  0.37500000  1
  N  N197  1  0.27214500  0.69888500  0.00422900  1
  N  N198  1  0.27214500  0.80111500  0.24577100  1
  N  N199  1  0.30111500  0.22785500  0.25422900  1
  N  N200  1  0.30111500  0.27214500  0.99577100  1
  N  N201  1  0.50000000  0.00000000  0.01444700  1
  N  N202  1  0.50000000  0.00000000  0.48555300  1
  N  N203  1  0.50000000  0.00000000  0.25000000  1
  N  N204  1  0.69888500  0.77214500  0.25422900  1
  N  N205  1  0.72785500  0.19888500  0.24577100  1
  N  N206  1  0.25000000  0.95646500  0.87500000  1
  N  N207  1  0.45646500  0.25000000  0.62500000  1
  N  N208  1  0.50000000  0.50000000  0.76444700  1
  N  N209  1  0.50000000  0.50000000  0.00000000  1
  N  N210  1  0.50000000  0.50000000  0.23555300  1
  N  N211  1  0.54353500  0.75000000  0.62500000  1
  N  N212  1  0.69888500  0.72785500  0.99577100  1
  N  N213  1  0.72785500  0.30111500  0.00422900  1
  N  N214  1  0.75000000  0.04353500  0.87500000  1
  N  N215  1  0.77214500  0.19888500  0.50422900  1
  N  N216  1  0.77214500  0.30111500  0.74577100  1
  N  N217  1  0.80111500  0.72785500  0.75422900  1
  N  N218  1  0.80111500  0.77214500  0.49577100  1
  N  N219  1  0.00000000  0.50000000  0.51444700  1
  N  N220  1  0.00000000  0.50000000  0.98555300  1
  N  N221  1  0.00000000  0.50000000  0.75000000  1
  N  N222  1  0.19888500  0.27214500  0.75422900  1
  N  N223  1  0.22785500  0.69888500  0.74577100  1
  O  O224  1  0.89030600  0.30090400  0.39241600  1
  O  O225  1  0.94278300  0.20934900  0.27218100  1
  O  O226  1  0.02267700  0.17230400  0.40137600  1
  O  O227  1  0.05721700  0.70934900  0.97781900  1
  O  O228  1  0.17230400  0.97732300  0.59862400  1
  O  O229  1  0.19909600  0.10969400  0.14241600  1
  O  O230  1  0.19909600  0.39030600  0.10758400  1
  O  O231  1  0.20934900  0.44278300  0.52218100  1
  O  O232  1  0.20934900  0.05721700  0.72781900  1
  O  O233  1  0.29065100  0.05721700  0.02218100  1
  O  O234  1  0.29065100  0.44278300  0.22781900  1
  O  O235  1  0.30090400  0.10969400  0.60758400  1
  O  O236  1  0.32769600  0.52267700  0.09862400  1
  O  O237  1  0.32769600  0.97732300  0.15137600  1
  O  O238  1  0.39030600  0.69909600  0.35758400  1
  O  O239  1  0.44278300  0.79065100  0.47781900  1
  O  O240  1  0.47732300  0.32769600  0.90137600  1
  O  O241  1  0.47732300  0.17230400  0.34862400  1
  O  O242  1  0.52267700  0.82769600  0.34862400  1
  O  O243  1  0.55721700  0.29065100  0.77218100  1
  O  O244  1  0.60969400  0.19909600  0.89241600  1
  O  O245  1  0.60969400  0.30090400  0.35758400  1
  O  O246  1  0.67230400  0.02267700  0.15137600  1
  O  O247  1  0.80090400  0.89030600  0.14241600  1
  O  O248  1  0.39030600  0.80090400  0.89241600  1
  O  O249  1  0.44278300  0.70934900  0.77218100  1
  O  O250  1  0.52267700  0.67230400  0.90137600  1
  O  O251  1  0.55721700  0.20934900  0.47781900  1
  O  O252  1  0.67230400  0.47732300  0.09862400  1
  O  O253  1  0.69909600  0.60969400  0.64241600  1
  O  O254  1  0.69909600  0.89030600  0.60758400  1
  O  O255  1  0.70934900  0.94278300  0.02218100  1
  O  O256  1  0.70934900  0.55721700  0.22781900  1
  O  O257  1  0.79065100  0.55721700  0.52218100  1
  O  O258  1  0.79065100  0.94278300  0.72781900  1
  O  O259  1  0.80090400  0.60969400  0.10758400  1
  O  O260  1  0.82769600  0.02267700  0.59862400  1
  O  O261  1  0.82769600  0.47732300  0.65137600  1
  O  O262  1  0.89030600  0.19909600  0.85758400  1
  O  O263  1  0.94278300  0.29065100  0.97781900  1
  O  O264  1  0.97732300  0.82769600  0.40137600  1
  O  O265  1  0.97732300  0.67230400  0.84862400  1
  O  O266  1  0.02267700  0.32769600  0.84862400  1
  O  O267  1  0.05721700  0.79065100  0.27218100  1
  O  O268  1  0.10969400  0.69909600  0.39241600  1
  O  O269  1  0.10969400  0.80090400  0.85758400  1
  O  O270  1  0.17230400  0.52267700  0.65137600  1
  O  O271  1  0.30090400  0.39030600  0.64241600  1
