# generated using pymatgen
data_K3CO3F
_symmetry_space_group_name_H-M   'P 1'
_cell_length_a   7.58010040
_cell_length_b   7.58010040
_cell_length_c   16.46923228
_cell_angle_alpha   90.00000000
_cell_angle_beta   90.00000000
_cell_angle_gamma   120.00000000
_symmetry_Int_Tables_number   1
_chemical_formula_structural   K3CO3F
_chemical_formula_sum   'K18 C6 O18 F6'
_cell_volume   819.50933015
_cell_formula_units_Z   6
loop_
 _symmetry_equiv_pos_site_id
 _symmetry_equiv_pos_as_xyz
  1  'x, y, z'
loop_
 _atom_site_type_symbol
 _atom_site_label
 _atom_site_symmetry_multiplicity
 _atom_site_fract_x
 _atom_site_fract_y
 _atom_site_fract_z
 _atom_site_occupancy
  K  K0  1  0.24161467  0.90828133  0.08333333  1
  K  K1  1  0.09171867  0.33333333  0.08333333  1
  K  K2  1  0.66666667  0.75838533  0.08333333  1
  K  K3  1  0.42505200  0.42505200  0.25000000  1
  K  K4  1  0.57494800  0.00000000  0.25000000  1
  K  K5  1  0.00000000  0.57494800  0.25000000  1
  K  K6  1  0.90828133  0.24161467  0.41666667  1
  K  K7  1  0.75838533  0.66666667  0.41666667  1
  K  K8  1  0.33333333  0.09171867  0.41666667  1
  K  K9  1  0.09171867  0.75838533  0.58333333  1
  K  K10  1  0.24161467  0.33333333  0.58333333  1
  K  K11  1  0.66666667  0.90828133  0.58333333  1
  K  K12  1  0.57494800  0.57494800  0.75000000  1
  K  K13  1  0.42505200  0.00000000  0.75000000  1
  K  K14  1  0.00000000  0.42505200  0.75000000  1
  K  K15  1  0.75838533  0.09171867  0.91666667  1
  K  K16  1  0.90828133  0.66666667  0.91666667  1
  K  K17  1  0.33333333  0.24161467  0.91666667  1
  C  C18  1  0.33333333  0.66666667  0.91666667  1
  C  C19  1  0.33333333  0.66666667  0.41666667  1
  C  C20  1  0.00000000  0.00000000  0.25000000  1
  C  C21  1  0.00000000  0.00000000  0.75000000  1
  C  C22  1  0.66666667  0.33333333  0.58333333  1
  C  C23  1  0.66666667  0.33333333  0.08333333  1
  O  O24  1  0.50603733  0.83937067  0.41666667  1
  O  O25  1  0.16062933  0.66666667  0.41666667  1
  O  O26  1  0.33333333  0.49396267  0.41666667  1
  O  O27  1  0.16062933  0.49396267  0.91666667  1
  O  O28  1  0.33333333  0.83937067  0.91666667  1
  O  O29  1  0.50603733  0.66666667  0.91666667  1
  O  O30  1  0.17270400  0.17270400  0.75000000  1
  O  O31  1  0.82729600  0.00000000  0.75000000  1
  O  O32  1  0.00000000  0.82729600  0.75000000  1
  O  O33  1  0.82729600  0.82729600  0.25000000  1
  O  O34  1  0.00000000  0.17270400  0.25000000  1
  O  O35  1  0.17270400  0.00000000  0.25000000  1
  O  O36  1  0.83937067  0.50603733  0.08333333  1
  O  O37  1  0.49396267  0.33333333  0.08333333  1
  O  O38  1  0.66666667  0.16062933  0.08333333  1
  O  O39  1  0.49396267  0.16062933  0.58333333  1
  O  O40  1  0.66666667  0.50603733  0.58333333  1
  O  O41  1  0.83937067  0.33333333  0.58333333  1
  F  F42  1  0.00000000  0.00000000  0.00000000  1
  F  F43  1  0.33333333  0.66666667  0.16666667  1
  F  F44  1  0.66666667  0.33333333  0.33333333  1
  F  F45  1  0.00000000  0.00000000  0.50000000  1
  F  F46  1  0.33333333  0.66666667  0.66666667  1
  F  F47  1  0.66666667  0.33333333  0.83333333  1
