# generated using pymatgen
data_Ce3AgGeS7
_symmetry_space_group_name_H-M   'P 1'
_cell_length_a   10.38409815
_cell_length_b   10.38409815
_cell_length_c   5.87445900
_cell_angle_alpha   90.00000000
_cell_angle_beta   90.00000000
_cell_angle_gamma   120.00000000
_symmetry_Int_Tables_number   1
_chemical_formula_structural   Ce3AgGeS7
_chemical_formula_sum   'Ce6 Ag2 Ge2 S14'
_cell_volume   548.57508264
_cell_formula_units_Z   2
loop_
 _symmetry_equiv_pos_site_id
 _symmetry_equiv_pos_as_xyz
  1  'x, y, z'
loop_
 _atom_site_type_symbol
 _atom_site_label
 _atom_site_symmetry_multiplicity
 _atom_site_fract_x
 _atom_site_fract_y
 _atom_site_fract_z
 _atom_site_occupancy
  Ce  Ce0  1  0.35957800  0.23098300  0.75435600  1
  Ce  Ce1  1  0.64042200  0.76901700  0.25435600  1
  Ce  Ce2  1  0.76901700  0.12859500  0.75435600  1
  Ce  Ce3  1  0.87140500  0.64042200  0.75435600  1
  Ce  Ce4  1  0.12859500  0.35957800  0.25435600  1
  Ce  Ce5  1  0.23098300  0.87140500  0.25435600  1
  Ag  Ag6  1  0.00000000  0.00000000  0.81140700  1
  Ag  Ag7  1  0.00000000  0.00000000  0.31140700  1
  Ge  Ge8  1  0.66666667  0.33333333  0.17251400  1
  Ge  Ge9  1  0.33333333  0.66666667  0.67251400  1
  S  S10  1  0.66666667  0.33333333  0.54894000  1
  S  S11  1  0.33333333  0.66666667  0.04894000  1
  S  S12  1  0.52166100  0.10676200  0.01648500  1
  S  S13  1  0.47833900  0.89323800  0.51648500  1
  S  S14  1  0.89323800  0.41489900  0.01648500  1
  S  S15  1  0.58510100  0.47833900  0.01648500  1
  S  S16  1  0.41489900  0.52166100  0.51648500  1
  S  S17  1  0.10676200  0.58510100  0.51648500  1
  S  S18  1  0.26782400  0.17136300  0.27545100  1
  S  S19  1  0.73217600  0.82863700  0.77545100  1
  S  S20  1  0.82863700  0.09646100  0.27545100  1
  S  S21  1  0.90353900  0.73217600  0.27545100  1
  S  S22  1  0.09646100  0.26782400  0.77545100  1
  S  S23  1  0.17136300  0.90353900  0.77545100  1
