# generated using pymatgen
data_CuH3NCl
_symmetry_space_group_name_H-M   'P 1'
_cell_length_a   8.35599600
_cell_length_b   8.35599600
_cell_length_c   8.35599600
_cell_angle_alpha   90.00000000
_cell_angle_beta   90.00000000
_cell_angle_gamma   90.00000000
_symmetry_Int_Tables_number   1
_chemical_formula_structural   CuH3NCl
_chemical_formula_sum   'Cu8 H24 N8 Cl8'
_cell_volume   583.43794414
_cell_formula_units_Z   8
loop_
 _symmetry_equiv_pos_site_id
 _symmetry_equiv_pos_as_xyz
  1  'x, y, z'
loop_
 _atom_site_type_symbol
 _atom_site_label
 _atom_site_symmetry_multiplicity
 _atom_site_fract_x
 _atom_site_fract_y
 _atom_site_fract_z
 _atom_site_occupancy
  Cu  Cu0  1  0.38127900  0.38127900  0.38127900  1
  Cu  Cu1  1  0.61872100  0.88127900  0.11872100  1
  Cu  Cu2  1  0.11872100  0.61872100  0.88127900  1
  Cu  Cu3  1  0.88127900  0.11872100  0.61872100  1
  Cu  Cu4  1  0.88127900  0.88127900  0.88127900  1
  Cu  Cu5  1  0.11872100  0.38127900  0.61872100  1
  Cu  Cu6  1  0.61872100  0.11872100  0.38127900  1
  Cu  Cu7  1  0.38127900  0.61872100  0.11872100  1
  H  H8  1  0.08220400  0.94585900  0.08990600  1
  H  H9  1  0.08220400  0.05414100  0.41009400  1
  H  H10  1  0.44585900  0.41009400  0.91779600  1
  H  H11  1  0.41009400  0.91779600  0.44585900  1
  H  H12  1  0.91779600  0.55414100  0.08990600  1
  H  H13  1  0.08990600  0.91779600  0.55414100  1
  H  H14  1  0.05414100  0.41009400  0.08220400  1
  H  H15  1  0.55414100  0.08990600  0.91779600  1
  H  H16  1  0.08990600  0.08220400  0.94585900  1
  H  H17  1  0.91779600  0.44585900  0.41009400  1
  H  H18  1  0.41009400  0.08220400  0.05414100  1
  H  H19  1  0.94585900  0.08990600  0.08220400  1
  H  H20  1  0.58220400  0.44585900  0.58990600  1
  H  H21  1  0.58220400  0.55414100  0.91009400  1
  H  H22  1  0.94585900  0.91009400  0.41779600  1
  H  H23  1  0.91009400  0.41779600  0.94585900  1
  H  H24  1  0.41779600  0.05414100  0.58990600  1
  H  H25  1  0.58990600  0.41779600  0.05414100  1
  H  H26  1  0.55414100  0.91009400  0.58220400  1
  H  H27  1  0.05414100  0.58990600  0.41779600  1
  H  H28  1  0.58990600  0.58220400  0.44585900  1
  H  H29  1  0.41779600  0.94585900  0.91009400  1
  H  H30  1  0.91009400  0.58220400  0.55414100  1
  H  H31  1  0.44585900  0.58990600  0.58220400  1
  N  N32  1  0.48686650  0.01313350  0.98686650  1
  N  N33  1  0.01313350  0.01313350  0.01313350  1
  N  N34  1  0.01313350  0.98686650  0.48686650  1
  N  N35  1  0.98686650  0.48686650  0.01313350  1
  N  N36  1  0.98686650  0.51313350  0.48686650  1
  N  N37  1  0.51313350  0.51313350  0.51313350  1
  N  N38  1  0.51313350  0.48686650  0.98686650  1
  N  N39  1  0.48686650  0.98686650  0.51313350  1
  Cl  Cl40  1  0.23484800  0.23484800  0.23484800  1
  Cl  Cl41  1  0.23484800  0.76515200  0.26515200  1
  Cl  Cl42  1  0.26515200  0.23484800  0.76515200  1
  Cl  Cl43  1  0.76515200  0.26515200  0.23484800  1
  Cl  Cl44  1  0.73484800  0.73484800  0.73484800  1
  Cl  Cl45  1  0.73484800  0.26515200  0.76515200  1
  Cl  Cl46  1  0.76515200  0.73484800  0.26515200  1
  Cl  Cl47  1  0.26515200  0.76515200  0.73484800  1
