# generated using pymatgen
data_TmSb(PbO3)2
_symmetry_space_group_name_H-M   'P 1'
_cell_length_a   10.20331200
_cell_length_b   5.85018600
_cell_length_c   10.21978515
_cell_angle_alpha   90.00000000
_cell_angle_beta   108.49065114
_cell_angle_gamma   90.00000000
_symmetry_Int_Tables_number   1
_chemical_formula_structural   TmSb(PbO3)2
_chemical_formula_sum   'Tm4 Sb4 Pb8 O24'
_cell_volume   578.53933849
_cell_formula_units_Z   4
loop_
 _symmetry_equiv_pos_site_id
 _symmetry_equiv_pos_as_xyz
  1  'x, y, z'
loop_
 _atom_site_type_symbol
 _atom_site_label
 _atom_site_symmetry_multiplicity
 _atom_site_fract_x
 _atom_site_fract_y
 _atom_site_fract_z
 _atom_site_occupancy
  Tm  Tm0  1  0.00000000  0.24294800  0.75000000  1
  Tm  Tm1  1  0.00000000  0.75705200  0.25000000  1
  Tm  Tm2  1  0.50000000  0.74294800  0.75000000  1
  Tm  Tm3  1  0.50000000  0.25705200  0.25000000  1
  Sb  Sb4  1  0.75000000  0.25000000  0.00000000  1
  Sb  Sb5  1  0.75000000  0.75000000  0.50000000  1
  Sb  Sb6  1  0.25000000  0.75000000  0.00000000  1
  Sb  Sb7  1  0.25000000  0.25000000  0.50000000  1
  Pb  Pb8  1  0.86918350  0.76064850  0.87459300  1
  Pb  Pb9  1  0.63081650  0.26064850  0.62540700  1
  Pb  Pb10  1  0.63081650  0.73935150  0.12540700  1
  Pb  Pb11  1  0.86918350  0.23935150  0.37459300  1
  Pb  Pb12  1  0.36918350  0.26064850  0.87459300  1
  Pb  Pb13  1  0.13081650  0.76064850  0.62540700  1
  Pb  Pb14  1  0.13081650  0.23935150  0.12540700  1
  Pb  Pb15  1  0.36918350  0.73935150  0.37459300  1
  O  O16  1  0.65504650  0.01824750  0.38157400  1
  O  O17  1  0.84495350  0.51824750  0.11842600  1
  O  O18  1  0.84495350  0.48175250  0.61842600  1
  O  O19  1  0.65504650  0.98175250  0.88157400  1
  O  O20  1  0.84899300  0.03289800  0.15149000  1
  O  O21  1  0.65100700  0.53289800  0.34851000  1
  O  O22  1  0.65100700  0.46710200  0.84851000  1
  O  O23  1  0.84899300  0.96710200  0.65149000  1
  O  O24  1  0.90387550  0.21356150  0.91695600  1
  O  O25  1  0.59612450  0.71356150  0.58304400  1
  O  O26  1  0.59612450  0.28643850  0.08304400  1
  O  O27  1  0.90387550  0.78643850  0.41695600  1
  O  O28  1  0.15504650  0.51824750  0.38157400  1
  O  O29  1  0.34495350  0.01824750  0.11842600  1
  O  O30  1  0.34495350  0.98175250  0.61842600  1
  O  O31  1  0.15504650  0.48175250  0.88157400  1
  O  O32  1  0.34899300  0.53289800  0.15149000  1
  O  O33  1  0.15100700  0.03289800  0.34851000  1
  O  O34  1  0.15100700  0.96710200  0.84851000  1
  O  O35  1  0.34899300  0.46710200  0.65149000  1
  O  O36  1  0.40387550  0.71356150  0.91695600  1
  O  O37  1  0.09612450  0.21356150  0.58304400  1
  O  O38  1  0.09612450  0.78643850  0.08304400  1
  O  O39  1  0.40387550  0.28643850  0.41695600  1
