# generated using pymatgen
data_MgTiIr2
_symmetry_space_group_name_H-M   'P 1'
_cell_length_a   6.20194600
_cell_length_b   6.20194600
_cell_length_c   6.20194600
_cell_angle_alpha   90.00000000
_cell_angle_beta   90.00000000
_cell_angle_gamma   90.00000000
_symmetry_Int_Tables_number   1
_chemical_formula_structural   MgTiIr2
_chemical_formula_sum   'Mg4 Ti4 Ir8'
_cell_volume   238.55248316
_cell_formula_units_Z   4
loop_
 _symmetry_equiv_pos_site_id
 _symmetry_equiv_pos_as_xyz
  1  'x, y, z'
loop_
 _atom_site_type_symbol
 _atom_site_label
 _atom_site_symmetry_multiplicity
 _atom_site_fract_x
 _atom_site_fract_y
 _atom_site_fract_z
 _atom_site_occupancy
  Mg  Mg0  1  0.00000000  0.00000000  0.00000000  1
  Mg  Mg1  1  0.00000000  0.50000000  0.50000000  1
  Mg  Mg2  1  0.50000000  0.00000000  0.50000000  1
  Mg  Mg3  1  0.50000000  0.50000000  0.00000000  1
  Ti  Ti4  1  0.50000000  0.00000000  0.00000000  1
  Ti  Ti5  1  0.50000000  0.50000000  0.50000000  1
  Ti  Ti6  1  0.00000000  0.00000000  0.50000000  1
  Ti  Ti7  1  0.00000000  0.50000000  0.00000000  1
  Ir  Ir8  1  0.25000000  0.25000000  0.75000000  1
  Ir  Ir9  1  0.25000000  0.75000000  0.75000000  1
  Ir  Ir10  1  0.25000000  0.75000000  0.25000000  1
  Ir  Ir11  1  0.25000000  0.25000000  0.25000000  1
  Ir  Ir12  1  0.75000000  0.25000000  0.25000000  1
  Ir  Ir13  1  0.75000000  0.75000000  0.25000000  1
  Ir  Ir14  1  0.75000000  0.75000000  0.75000000  1
  Ir  Ir15  1  0.75000000  0.25000000  0.75000000  1
