# generated using pymatgen
data_ZnPtF6
_symmetry_space_group_name_H-M   'P 1'
_cell_length_a   5.12911830
_cell_length_b   5.12911830
_cell_length_c   13.93628702
_cell_angle_alpha   90.00000000
_cell_angle_beta   90.00000000
_cell_angle_gamma   120.00000000
_symmetry_Int_Tables_number   1
_chemical_formula_structural   ZnPtF6
_chemical_formula_sum   'Zn3 Pt3 F18'
_cell_volume   317.51419431
_cell_formula_units_Z   3
loop_
 _symmetry_equiv_pos_site_id
 _symmetry_equiv_pos_as_xyz
  1  'x, y, z'
loop_
 _atom_site_type_symbol
 _atom_site_label
 _atom_site_symmetry_multiplicity
 _atom_site_fract_x
 _atom_site_fract_y
 _atom_site_fract_z
 _atom_site_occupancy
  Zn  Zn0  1  0.33333333  0.66666667  0.16666667  1
  Zn  Zn1  1  1.00000000  0.00000000  0.50000000  1
  Zn  Zn2  1  0.66666667  0.33333333  0.83333333  1
  Pt  Pt3  1  0.00000000  0.00000000  0.00000000  1
  Pt  Pt4  1  0.66666667  0.33333333  0.33333333  1
  Pt  Pt5  1  0.33333333  0.66666667  0.66666667  1
  F  F6  1  0.36321733  0.00943567  0.25113967  1
  F  F7  1  0.64621833  0.63678267  0.25113967  1
  F  F8  1  0.67610233  0.97955167  0.08219367  1
  F  F9  1  0.02044833  0.69655067  0.08219367  1
  F  F10  1  0.30344933  0.32389767  0.08219367  1
  F  F11  1  0.99056433  0.35378167  0.25113967  1
  F  F12  1  0.02988400  0.34276900  0.58447300  1
  F  F13  1  0.31288500  0.97011600  0.58447300  1
  F  F14  1  0.34276900  0.31288500  0.41552700  1
  F  F15  1  0.68711500  0.02988400  0.41552700  1
  F  F16  1  0.97011600  0.65723100  0.41552700  1
  F  F17  1  0.65723100  0.68711500  0.58447300  1
  F  F18  1  0.69655067  0.67610233  0.91780633  1
  F  F19  1  0.97955167  0.30344933  0.91780633  1
  F  F20  1  0.00943567  0.64621833  0.74886033  1
  F  F21  1  0.35378167  0.36321733  0.74886033  1
  F  F22  1  0.63678267  0.99056433  0.74886033  1
  F  F23  1  0.32389767  0.02044833  0.91780633  1
