# generated using pymatgen
data_K4IrO4
_symmetry_space_group_name_H-M   'P 1'
_cell_length_a   9.32227800
_cell_length_b   6.40968000
_cell_length_c   6.27973973
_cell_angle_alpha   90.00000000
_cell_angle_beta   106.47557985
_cell_angle_gamma   90.00000000
_symmetry_Int_Tables_number   1
_chemical_formula_structural   K4IrO4
_chemical_formula_sum   'K8 Ir2 O8'
_cell_volume   359.82538033
_cell_formula_units_Z   2
loop_
 _symmetry_equiv_pos_site_id
 _symmetry_equiv_pos_as_xyz
  1  'x, y, z'
loop_
 _atom_site_type_symbol
 _atom_site_label
 _atom_site_symmetry_multiplicity
 _atom_site_fract_x
 _atom_site_fract_y
 _atom_site_fract_z
 _atom_site_occupancy
  K  K0  1  0.62186900  0.00000000  0.86580300  1
  K  K1  1  0.19352700  0.00000000  0.58261100  1
  K  K2  1  0.37813100  0.00000000  0.13419700  1
  K  K3  1  0.80647300  0.00000000  0.41738900  1
  K  K4  1  0.12186900  0.50000000  0.86580300  1
  K  K5  1  0.69352700  0.50000000  0.58261100  1
  K  K6  1  0.87813100  0.50000000  0.13419700  1
  K  K7  1  0.30647300  0.50000000  0.41738900  1
  Ir  Ir8  1  0.00000000  0.00000000  0.00000000  1
  Ir  Ir9  1  0.50000000  0.50000000  0.00000000  1
  O  O10  1  0.38971600  0.71321900  0.80084900  1
  O  O11  1  0.38971600  0.28678100  0.80084900  1
  O  O12  1  0.61028400  0.71321900  0.19915100  1
  O  O13  1  0.61028400  0.28678100  0.19915100  1
  O  O14  1  0.88971600  0.21321900  0.80084900  1
  O  O15  1  0.88971600  0.78678100  0.80084900  1
  O  O16  1  0.11028400  0.21321900  0.19915100  1
  O  O17  1  0.11028400  0.78678100  0.19915100  1
