# generated using pymatgen
data_Ca2SnS4
_symmetry_space_group_name_H-M   'P 1'
_cell_length_a   7.17077500
_cell_length_b   11.78263600
_cell_length_c   16.80750900
_cell_angle_alpha   90.00000000
_cell_angle_beta   90.00000000
_cell_angle_gamma   90.00000000
_symmetry_Int_Tables_number   1
_chemical_formula_structural   Ca2SnS4
_chemical_formula_sum   'Ca16 Sn8 S32'
_cell_volume   1420.07705209
_cell_formula_units_Z   8
loop_
 _symmetry_equiv_pos_site_id
 _symmetry_equiv_pos_as_xyz
  1  'x, y, z'
loop_
 _atom_site_type_symbol
 _atom_site_label
 _atom_site_symmetry_multiplicity
 _atom_site_fract_x
 _atom_site_fract_y
 _atom_site_fract_z
 _atom_site_occupancy
  Ca  Ca0  1  0.77188000  0.99483900  0.12325200  1
  Ca  Ca1  1  0.22812000  0.49483900  0.87674800  1
  Ca  Ca2  1  0.27188000  0.49483900  0.37674800  1
  Ca  Ca3  1  0.72812000  0.99483900  0.62325200  1
  Ca  Ca4  1  0.80730100  0.88261600  0.38005400  1
  Ca  Ca5  1  0.19269900  0.38261600  0.61994600  1
  Ca  Ca6  1  0.30730100  0.38261600  0.11994600  1
  Ca  Ca7  1  0.69269900  0.88261600  0.88005400  1
  Ca  Ca8  1  0.81853900  0.63141600  0.18803000  1
  Ca  Ca9  1  0.18146100  0.13141600  0.81197000  1
  Ca  Ca10  1  0.31853900  0.13141600  0.31197000  1
  Ca  Ca11  1  0.68146100  0.63141600  0.68803000  1
  Ca  Ca12  1  0.79006600  0.24515600  0.44938100  1
  Ca  Ca13  1  0.20993400  0.74515600  0.55061900  1
  Ca  Ca14  1  0.29006600  0.74515600  0.05061900  1
  Ca  Ca15  1  0.70993400  0.24515600  0.94938100  1
  Sn  Sn16  1  0.71919900  0.60279800  0.47152000  1
  Sn  Sn17  1  0.28080100  0.10279800  0.52848000  1
  Sn  Sn18  1  0.21919900  0.10279800  0.02848000  1
  Sn  Sn19  1  0.78080100  0.60279800  0.97152000  1
  Sn  Sn20  1  0.81161100  0.27456000  0.23617900  1
  Sn  Sn21  1  0.18838900  0.77456000  0.76382100  1
  Sn  Sn22  1  0.31161100  0.77456000  0.26382100  1
  Sn  Sn23  1  0.68838900  0.27456000  0.73617900  1
  S  S24  1  0.52576500  0.93486000  0.25997700  1
  S  S25  1  0.47423500  0.43486000  0.74002300  1
  S  S26  1  0.02576500  0.43486000  0.24002300  1
  S  S27  1  0.97423500  0.93486000  0.75997700  1
  S  S28  1  0.54691700  0.46212600  0.98234000  1
  S  S29  1  0.45308300  0.96212600  0.01766000  1
  S  S30  1  0.04691700  0.96212600  0.51766000  1
  S  S31  1  0.95308300  0.46212600  0.48234000  1
  S  S32  1  0.54514700  0.32558000  0.32282700  1
  S  S33  1  0.45485300  0.82558000  0.67717300  1
  S  S34  1  0.04514700  0.82558000  0.17717300  1
  S  S35  1  0.95485300  0.32558000  0.82282700  1
  S  S36  1  0.56936700  0.04337500  0.46679900  1
  S  S37  1  0.43063300  0.54337500  0.53320100  1
  S  S38  1  0.06936700  0.54337500  0.03320100  1
  S  S39  1  0.93063300  0.04337500  0.96679900  1
  S  S40  1  0.64130800  0.66572700  0.34086100  1
  S  S41  1  0.35869200  0.16572700  0.65913900  1
  S  S42  1  0.14130800  0.16572700  0.15913900  1
  S  S43  1  0.85869200  0.66572700  0.84086100  1
  S  S44  1  0.63819300  0.22495400  0.11874300  1
  S  S45  1  0.36180700  0.72495400  0.88125700  1
  S  S46  1  0.13819300  0.72495400  0.38125700  1
  S  S47  1  0.86180700  0.22495400  0.61874300  1
  S  S48  1  0.69482000  0.76681000  0.04747800  1
  S  S49  1  0.30518000  0.26681000  0.95252200  1
  S  S50  1  0.19482000  0.26681000  0.45252200  1
  S  S51  1  0.80518000  0.76681000  0.54747800  1
  S  S52  1  0.91243700  0.11098400  0.31788200  1
  S  S53  1  0.08756300  0.61098400  0.68211800  1
  S  S54  1  0.41243700  0.61098400  0.18211800  1
  S  S55  1  0.58756300  0.11098400  0.81788200  1
