# generated using pymatgen
data_Ba4PtO6
_symmetry_space_group_name_H-M   'P 1'
_cell_length_a   10.39637156
_cell_length_b   10.39637156
_cell_length_c   12.85477514
_cell_angle_alpha   90.00000000
_cell_angle_beta   90.00000000
_cell_angle_gamma   120.00000000
_symmetry_Int_Tables_number   1
_chemical_formula_structural   Ba4PtO6
_chemical_formula_sum   'Ba24 Pt6 O36'
_cell_volume   1203.25784338
_cell_formula_units_Z   6
loop_
 _symmetry_equiv_pos_site_id
 _symmetry_equiv_pos_as_xyz
  1  'x, y, z'
loop_
 _atom_site_type_symbol
 _atom_site_label
 _atom_site_symmetry_multiplicity
 _atom_site_fract_x
 _atom_site_fract_y
 _atom_site_fract_z
 _atom_site_occupancy
  Ba  Ba0  1  0.33333333  0.66666667  0.91666667  1
  Ba  Ba1  1  0.33333333  0.66666667  0.41666667  1
  Ba  Ba2  1  0.03667467  0.33333333  0.08333333  1
  Ba  Ba3  1  0.66666667  0.70334133  0.08333333  1
  Ba  Ba4  1  0.29665867  0.96332533  0.08333333  1
  Ba  Ba5  1  0.62999200  0.00000000  0.25000000  1
  Ba  Ba6  1  0.00000000  0.62999200  0.25000000  1
  Ba  Ba7  1  0.37000800  0.37000800  0.25000000  1
  Ba  Ba8  1  0.00000000  0.00000000  0.25000000  1
  Ba  Ba9  1  0.00000000  0.00000000  0.75000000  1
  Ba  Ba10  1  0.70334133  0.66666667  0.41666667  1
  Ba  Ba11  1  0.33333333  0.03667467  0.41666667  1
  Ba  Ba12  1  0.96332533  0.29665867  0.41666667  1
  Ba  Ba13  1  0.29665867  0.33333333  0.58333333  1
  Ba  Ba14  1  0.66666667  0.96332533  0.58333333  1
  Ba  Ba15  1  0.03667467  0.70334133  0.58333333  1
  Ba  Ba16  1  0.66666667  0.33333333  0.58333333  1
  Ba  Ba17  1  0.66666667  0.33333333  0.08333333  1
  Ba  Ba18  1  0.37000800  0.00000000  0.75000000  1
  Ba  Ba19  1  0.00000000  0.37000800  0.75000000  1
  Ba  Ba20  1  0.62999200  0.62999200  0.75000000  1
  Ba  Ba21  1  0.96332533  0.66666667  0.91666667  1
  Ba  Ba22  1  0.33333333  0.29665867  0.91666667  1
  Ba  Ba23  1  0.70334133  0.03667467  0.91666667  1
  Pt  Pt24  1  0.00000000  0.00000000  0.00000000  1
  Pt  Pt25  1  0.33333333  0.66666667  0.16666667  1
  Pt  Pt26  1  0.66666667  0.33333333  0.33333333  1
  Pt  Pt27  1  0.00000000  0.00000000  0.50000000  1
  Pt  Pt28  1  0.33333333  0.66666667  0.66666667  1
  Pt  Pt29  1  0.66666667  0.33333333  0.83333333  1
  O  O30  1  0.51052933  0.68852567  0.26129867  1
  O  O31  1  0.31147433  0.82200367  0.26129867  1
  O  O32  1  0.17799633  0.48947067  0.26129867  1
  O  O33  1  0.82200367  0.31147433  0.23870133  1
  O  O34  1  0.68852567  0.51052933  0.23870133  1
  O  O35  1  0.48947067  0.17799633  0.23870133  1
  O  O36  1  0.15613733  0.64480767  0.07203467  1
  O  O37  1  0.35519233  0.51132967  0.07203467  1
  O  O38  1  0.48867033  0.84386267  0.07203467  1
  O  O39  1  0.84466300  0.02185900  0.09463200  1
  O  O40  1  0.17719600  0.15533700  0.09463200  1
  O  O41  1  0.97814100  0.82280400  0.09463200  1
  O  O42  1  0.17719600  0.02185900  0.59463200  1
  O  O43  1  0.97814100  0.15533700  0.59463200  1
  O  O44  1  0.84466300  0.82280400  0.59463200  1
  O  O45  1  0.48867033  0.64480767  0.57203467  1
  O  O46  1  0.35519233  0.84386267  0.57203467  1
  O  O47  1  0.15613733  0.51132967  0.57203467  1
  O  O48  1  0.82280400  0.97814100  0.40536800  1
  O  O49  1  0.02185900  0.84466300  0.40536800  1
  O  O50  1  0.15533700  0.17719600  0.40536800  1
  O  O51  1  0.51132967  0.35519233  0.42796533  1
  O  O52  1  0.84386267  0.48867033  0.42796533  1
  O  O53  1  0.64480767  0.15613733  0.42796533  1
  O  O54  1  0.84386267  0.35519233  0.92796533  1
  O  O55  1  0.64480767  0.48867033  0.92796533  1
  O  O56  1  0.51132967  0.15613733  0.92796533  1
  O  O57  1  0.15533700  0.97814100  0.90536800  1
  O  O58  1  0.02185900  0.17719600  0.90536800  1
  O  O59  1  0.82280400  0.84466300  0.90536800  1
  O  O60  1  0.48947067  0.31147433  0.73870133  1
  O  O61  1  0.68852567  0.17799633  0.73870133  1
  O  O62  1  0.82200367  0.51052933  0.73870133  1
  O  O63  1  0.17799633  0.68852567  0.76129867  1
  O  O64  1  0.51052933  0.82200367  0.76129867  1
  O  O65  1  0.31147433  0.48947067  0.76129867  1
