# generated using pymatgen
data_NbBO4
_symmetry_space_group_name_H-M   'P 1'
_cell_length_a   6.32767200
_cell_length_b   6.32767200
_cell_length_c   5.53285400
_cell_angle_alpha   90.00000000
_cell_angle_beta   90.00000000
_cell_angle_gamma   90.00000000
_symmetry_Int_Tables_number   1
_chemical_formula_structural   NbBO4
_chemical_formula_sum   'Nb4 B4 O16'
_cell_volume   221.53233670
_cell_formula_units_Z   4
loop_
 _symmetry_equiv_pos_site_id
 _symmetry_equiv_pos_as_xyz
  1  'x, y, z'
loop_
 _atom_site_type_symbol
 _atom_site_label
 _atom_site_symmetry_multiplicity
 _atom_site_fract_x
 _atom_site_fract_y
 _atom_site_fract_z
 _atom_site_occupancy
  Nb  Nb0  1  0.50000000  0.00000000  0.25000000  1
  Nb  Nb1  1  0.50000000  0.50000000  0.50000000  1
  Nb  Nb2  1  0.00000000  0.50000000  0.75000000  1
  Nb  Nb3  1  0.00000000  0.00000000  0.00000000  1
  B  B4  1  0.50000000  0.00000000  0.75000000  1
  B  B5  1  0.00000000  0.00000000  0.50000000  1
  B  B6  1  0.00000000  0.50000000  0.25000000  1
  B  B7  1  0.50000000  0.50000000  0.00000000  1
  O  O8  1  0.00000000  0.32317500  0.07494700  1
  O  O9  1  0.17682500  0.00000000  0.32494700  1
  O  O10  1  0.82317500  0.50000000  0.42505300  1
  O  O11  1  0.00000000  0.17682500  0.67505300  1
  O  O12  1  0.00000000  0.82317500  0.67505300  1
  O  O13  1  0.67682500  0.00000000  0.92505300  1
  O  O14  1  0.50000000  0.17682500  0.57494700  1
  O  O15  1  0.82317500  0.00000000  0.32494700  1
  O  O16  1  0.50000000  0.82317500  0.57494700  1
  O  O17  1  0.67682500  0.50000000  0.82494700  1
  O  O18  1  0.32317500  0.00000000  0.92505300  1
  O  O19  1  0.50000000  0.67682500  0.17505300  1
  O  O20  1  0.50000000  0.32317500  0.17505300  1
  O  O21  1  0.17682500  0.50000000  0.42505300  1
  O  O22  1  0.00000000  0.67682500  0.07494700  1
  O  O23  1  0.32317500  0.50000000  0.82494700  1
