# generated using pymatgen
data_ErH(SO4)2
_symmetry_space_group_name_H-M   'P 1'
_cell_length_a   5.50795200
_cell_length_b   10.86935400
_cell_length_c   10.66167519
_cell_angle_alpha   90.00000000
_cell_angle_beta   105.42212452
_cell_angle_gamma   90.00000000
_symmetry_Int_Tables_number   1
_chemical_formula_structural   ErH(SO4)2
_chemical_formula_sum   'Er4 H4 S8 O32'
_cell_volume   615.30878103
_cell_formula_units_Z   4
loop_
 _symmetry_equiv_pos_site_id
 _symmetry_equiv_pos_as_xyz
  1  'x, y, z'
loop_
 _atom_site_type_symbol
 _atom_site_label
 _atom_site_symmetry_multiplicity
 _atom_site_fract_x
 _atom_site_fract_y
 _atom_site_fract_z
 _atom_site_occupancy
  Er  Er0  1  0.26425000  0.83291800  0.15222100  1
  Er  Er1  1  0.73575000  0.33291800  0.34777900  1
  Er  Er2  1  0.26425000  0.66708200  0.65222100  1
  Er  Er3  1  0.73575000  0.16708200  0.84777900  1
  H  H4  1  0.84924800  0.97615500  0.60452500  1
  H  H5  1  0.15075200  0.47615500  0.89547500  1
  H  H6  1  0.84924800  0.52384500  0.10452500  1
  H  H7  1  0.15075200  0.02384500  0.39547500  1
  S  S8  1  0.32362000  0.31756000  0.00533200  1
  S  S9  1  0.67638000  0.81756000  0.49466800  1
  S  S10  1  0.78979700  0.45464300  0.68033900  1
  S  S11  1  0.78979700  0.04535700  0.18033900  1
  S  S12  1  0.21020300  0.95464300  0.81966100  1
  S  S13  1  0.21020300  0.54535700  0.31966100  1
  S  S14  1  0.32362000  0.18244000  0.50533200  1
  S  S15  1  0.67638000  0.68244000  0.99466800  1
  O  O16  1  0.44767200  0.21128000  0.40275700  1
  O  O17  1  0.44724500  0.49049800  0.30869300  1
  O  O18  1  0.50234300  0.81465100  0.36556300  1
  O  O19  1  0.49765700  0.31465100  0.13443700  1
  O  O20  1  0.55275500  0.99049800  0.19130700  1
  O  O21  1  0.85316200  0.34543900  0.76521000  1
  O  O22  1  0.77593100  0.42496300  0.54373900  1
  O  O23  1  0.75980400  0.95609000  0.51229100  1
  O  O24  1  0.55232800  0.71128000  0.09724300  1
  O  O25  1  0.10261100  0.24072500  0.99675900  1
  O  O26  1  0.99568400  0.04463600  0.76989900  1
  O  O27  1  0.00431600  0.54463600  0.73010100  1
  O  O28  1  0.89738900  0.74072500  0.50324100  1
  O  O29  1  0.85316200  0.15456100  0.26521000  1
  O  O30  1  0.24019600  0.45609000  0.98770900  1
  O  O31  1  0.22406900  0.92496300  0.95626100  1
  O  O32  1  0.77593100  0.07503700  0.04373900  1
  O  O33  1  0.75980400  0.54391000  0.01229100  1
  O  O34  1  0.14683800  0.84543900  0.73479000  1
  O  O35  1  0.10261100  0.25927500  0.49675900  1
  O  O36  1  0.99568400  0.45536400  0.26989900  1
  O  O37  1  0.00431600  0.95536400  0.23010100  1
  O  O38  1  0.89738900  0.75927500  0.00324100  1
  O  O39  1  0.44767200  0.28872000  0.90275700  1
  O  O40  1  0.24019600  0.04391000  0.48770900  1
  O  O41  1  0.22406900  0.57503700  0.45626100  1
  O  O42  1  0.14683800  0.65456100  0.23479000  1
  O  O43  1  0.44724500  0.00950200  0.80869300  1
  O  O44  1  0.50234300  0.68534900  0.86556300  1
  O  O45  1  0.49765700  0.18534900  0.63443700  1
  O  O46  1  0.55275500  0.50950200  0.69130700  1
  O  O47  1  0.55232800  0.78872000  0.59724300  1
