# generated using pymatgen
data_CaAlF5
_symmetry_space_group_name_H-M   'P 1'
_cell_length_a   8.81944200
_cell_length_b   6.40697600
_cell_length_c   7.43976286
_cell_angle_alpha   90.00000000
_cell_angle_beta   115.03343644
_cell_angle_gamma   90.00000000
_symmetry_Int_Tables_number   1
_chemical_formula_structural   CaAlF5
_chemical_formula_sum   'Ca4 Al4 F20'
_cell_volume   380.89979349
_cell_formula_units_Z   4
loop_
 _symmetry_equiv_pos_site_id
 _symmetry_equiv_pos_as_xyz
  1  'x, y, z'
loop_
 _atom_site_type_symbol
 _atom_site_label
 _atom_site_symmetry_multiplicity
 _atom_site_fract_x
 _atom_site_fract_y
 _atom_site_fract_z
 _atom_site_occupancy
  Ca  Ca0  1  0.00000000  0.45849600  0.75000000  1
  Ca  Ca1  1  0.00000000  0.54150400  0.25000000  1
  Ca  Ca2  1  0.50000000  0.95849600  0.75000000  1
  Ca  Ca3  1  0.50000000  0.04150400  0.25000000  1
  Al  Al4  1  0.00000000  0.00000000  0.50000000  1
  Al  Al5  1  0.00000000  0.00000000  0.00000000  1
  Al  Al6  1  0.50000000  0.50000000  0.50000000  1
  Al  Al7  1  0.50000000  0.50000000  0.00000000  1
  F  F8  1  0.27786950  0.51710150  0.38643200  1
  F  F9  1  0.72213050  0.51710150  0.11356800  1
  F  F10  1  0.72213050  0.48289850  0.61356800  1
  F  F11  1  0.27786950  0.48289850  0.88643200  1
  F  F12  1  0.00000000  0.94198000  0.25000000  1
  F  F13  1  0.00000000  0.05802000  0.75000000  1
  F  F14  1  0.01109000  0.71640800  0.97393600  1
  F  F15  1  0.98891000  0.71640800  0.52606400  1
  F  F16  1  0.98891000  0.28359200  0.02606400  1
  F  F17  1  0.01109000  0.28359200  0.47393600  1
  F  F18  1  0.77786950  0.01710150  0.38643200  1
  F  F19  1  0.22213050  0.01710150  0.11356800  1
  F  F20  1  0.22213050  0.98289850  0.61356800  1
  F  F21  1  0.77786950  0.98289850  0.88643200  1
  F  F22  1  0.50000000  0.44198000  0.25000000  1
  F  F23  1  0.50000000  0.55802000  0.75000000  1
  F  F24  1  0.51109000  0.21640800  0.97393600  1
  F  F25  1  0.48891000  0.21640800  0.52606400  1
  F  F26  1  0.48891000  0.78359200  0.02606400  1
  F  F27  1  0.51109000  0.78359200  0.47393600  1
