# generated using pymatgen
data_Tm2S2O
_symmetry_space_group_name_H-M   'P 1'
_cell_length_a   6.79789600
_cell_length_b   6.79725200
_cell_length_c   8.18507789
_cell_angle_alpha   90.00000000
_cell_angle_beta   99.51248088
_cell_angle_gamma   90.00000000
_symmetry_Int_Tables_number   1
_chemical_formula_structural   Tm2S2O
_chemical_formula_sum   'Tm8 S8 O4'
_cell_volume   373.00749205
_cell_formula_units_Z   4
loop_
 _symmetry_equiv_pos_site_id
 _symmetry_equiv_pos_as_xyz
  1  'x, y, z'
loop_
 _atom_site_type_symbol
 _atom_site_label
 _atom_site_symmetry_multiplicity
 _atom_site_fract_x
 _atom_site_fract_y
 _atom_site_fract_z
 _atom_site_occupancy
  Tm  Tm0  1  0.24920700  0.05333400  0.13888700  1
  Tm  Tm1  1  0.25079300  0.55333400  0.86111300  1
  Tm  Tm2  1  0.75079300  0.94666600  0.86111300  1
  Tm  Tm3  1  0.74920700  0.44666600  0.13888700  1
  Tm  Tm4  1  0.32444100  0.14600800  0.57493600  1
  Tm  Tm5  1  0.17555900  0.64600800  0.42506400  1
  Tm  Tm6  1  0.67555900  0.85399200  0.42506400  1
  Tm  Tm7  1  0.82444100  0.35399200  0.57493600  1
  S  S8  1  0.53049000  0.77742000  0.07470500  1
  S  S9  1  0.96951000  0.27742000  0.92529500  1
  S  S10  1  0.46951000  0.22258000  0.92529500  1
  S  S11  1  0.03049000  0.72258000  0.07470500  1
  S  S12  1  0.08101700  0.86904800  0.68156300  1
  S  S13  1  0.41898300  0.36904800  0.31843700  1
  S  S14  1  0.91898300  0.13095200  0.31843700  1
  S  S15  1  0.58101700  0.63095200  0.68156300  1
  O  O16  1  0.85001000  0.58698300  0.38328500  1
  O  O17  1  0.64999000  0.08698300  0.61671500  1
  O  O18  1  0.14999000  0.41301700  0.61671500  1
  O  O19  1  0.35001000  0.91301700  0.38328500  1
