# generated using pymatgen
data_K2ZnO2
_symmetry_space_group_name_H-M   'P 1'
_cell_length_a   5.50031800
_cell_length_b   6.09319400
_cell_length_c   10.53089200
_cell_angle_alpha   90.00000000
_cell_angle_beta   90.00000000
_cell_angle_gamma   90.00000000
_symmetry_Int_Tables_number   1
_chemical_formula_structural   K2ZnO2
_chemical_formula_sum   'K8 Zn4 O8'
_cell_volume   352.93762875
_cell_formula_units_Z   4
loop_
 _symmetry_equiv_pos_site_id
 _symmetry_equiv_pos_as_xyz
  1  'x, y, z'
loop_
 _atom_site_type_symbol
 _atom_site_label
 _atom_site_symmetry_multiplicity
 _atom_site_fract_x
 _atom_site_fract_y
 _atom_site_fract_z
 _atom_site_occupancy
  K  K0  1  0.50000000  0.36365100  0.15230200  1
  K  K1  1  0.00000000  0.13634900  0.34769800  1
  K  K2  1  0.00000000  0.63634900  0.15230200  1
  K  K3  1  0.50000000  0.86365100  0.34769800  1
  K  K4  1  0.00000000  0.86365100  0.65230200  1
  K  K5  1  0.50000000  0.63634900  0.84769800  1
  K  K6  1  0.50000000  0.13634900  0.65230200  1
  K  K7  1  0.00000000  0.36365100  0.84769800  1
  Zn  Zn8  1  0.25000000  0.00000000  0.00000000  1
  Zn  Zn9  1  0.75000000  0.00000000  0.00000000  1
  Zn  Zn10  1  0.75000000  0.50000000  0.50000000  1
  Zn  Zn11  1  0.25000000  0.50000000  0.50000000  1
  O  O12  1  0.50000000  0.81439000  0.09545200  1
  O  O13  1  0.00000000  0.68561000  0.40454800  1
  O  O14  1  0.50000000  0.31439000  0.40454800  1
  O  O15  1  0.00000000  0.18561000  0.09545200  1
  O  O16  1  0.00000000  0.31439000  0.59545200  1
  O  O17  1  0.50000000  0.18561000  0.90454800  1
  O  O18  1  0.00000000  0.81439000  0.90454800  1
  O  O19  1  0.50000000  0.68561000  0.59545200  1
