# generated using pymatgen
data_Li2Cr(PO3)5
_symmetry_space_group_name_H-M   'P 1'
_cell_length_a   7.58963600
_cell_length_b   11.08941600
_cell_length_c   13.49164224
_cell_angle_alpha   90.00000000
_cell_angle_beta   102.27656124
_cell_angle_gamma   90.00000000
_symmetry_Int_Tables_number   1
_chemical_formula_structural   Li2Cr(PO3)5
_chemical_formula_sum   'Li8 Cr4 P20 O60'
_cell_volume   1109.55276547
_cell_formula_units_Z   4
loop_
 _symmetry_equiv_pos_site_id
 _symmetry_equiv_pos_as_xyz
  1  'x, y, z'
loop_
 _atom_site_type_symbol
 _atom_site_label
 _atom_site_symmetry_multiplicity
 _atom_site_fract_x
 _atom_site_fract_y
 _atom_site_fract_z
 _atom_site_occupancy
  Li  Li0  1  0.48095800  0.74866600  0.72338400  1
  Li  Li1  1  0.48095800  0.25133400  0.22338400  1
  Li  Li2  1  0.66917000  0.14200300  0.56468700  1
  Li  Li3  1  0.66917000  0.85799700  0.06468700  1
  Li  Li4  1  0.98095800  0.24866600  0.72338400  1
  Li  Li5  1  0.98095800  0.75133400  0.22338400  1
  Li  Li6  1  0.16917000  0.64200300  0.56468700  1
  Li  Li7  1  0.16917000  0.35799700  0.06468700  1
  Cr  Cr8  1  0.45155250  0.36580550  0.77744800  1
  Cr  Cr9  1  0.45155250  0.63419450  0.27744800  1
  Cr  Cr10  1  0.95155250  0.86580550  0.77744800  1
  Cr  Cr11  1  0.95155250  0.13419450  0.27744800  1
  P  P12  1  0.34979300  0.30877700  0.52979800  1
  P  P13  1  0.35394150  0.93859150  0.55719300  1
  P  P14  1  0.28389000  0.09433500  0.83113400  1
  P  P15  1  0.34979300  0.69122300  0.02979800  1
  P  P16  1  0.35394150  0.06140850  0.05719300  1
  P  P17  1  0.28389000  0.90566500  0.33113400  1
  P  P18  1  0.54616900  0.63203600  0.52779500  1
  P  P19  1  0.54616900  0.36796400  0.02779500  1
  P  P20  1  0.67101600  0.09420600  0.82803600  1
  P  P21  1  0.67101600  0.90579400  0.32803600  1
  P  P22  1  0.84979300  0.80877700  0.52979800  1
  P  P23  1  0.85394150  0.43859150  0.55719300  1
  P  P24  1  0.78389000  0.59433500  0.83113400  1
  P  P25  1  0.84979300  0.19122300  0.02979800  1
  P  P26  1  0.85394150  0.56140850  0.05719300  1
  P  P27  1  0.78389000  0.40566500  0.33113400  1
  P  P28  1  0.04616900  0.13203600  0.52779500  1
  P  P29  1  0.04616900  0.86796400  0.02779500  1
  P  P30  1  0.17101600  0.59420600  0.82803600  1
  P  P31  1  0.17101600  0.40579400  0.32803600  1
  O  O32  1  0.14485550  0.99814750  0.79827300  1
  O  O33  1  0.14485550  0.00185250  0.29827300  1
  O  O34  1  0.32978700  0.84994200  0.63533600  1
  O  O35  1  0.32978700  0.15005800  0.13533600  1
  O  O36  1  0.18270200  0.02600800  0.54054000  1
  O  O37  1  0.18270200  0.97399200  0.04054000  1
  O  O38  1  0.30366200  0.13075700  0.94656000  1
  O  O39  1  0.30366200  0.86924300  0.44656000  1
  O  O40  1  0.25664400  0.21367900  0.77176000  1
  O  O41  1  0.25664400  0.78632100  0.27176000  1
  O  O42  1  0.46482750  0.77201550  0.98262400  1
  O  O43  1  0.46482750  0.22798450  0.48262400  1
  O  O44  1  0.44428400  0.36265800  0.91865600  1
  O  O45  1  0.52575900  0.00547900  0.56680100  1
  O  O46  1  0.44428400  0.63734200  0.41865600  1
  O  O47  1  0.47534000  0.03504000  0.82457900  1
  O  O48  1  0.52575900  0.99452100  0.06680100  1
  O  O49  1  0.47534000  0.96496000  0.32457900  1
  O  O50  1  0.43042300  0.62699600  0.60397100  1
  O  O51  1  0.43042300  0.37300400  0.10397100  1
  O  O52  1  0.66872400  0.74939200  0.55090200  1
  O  O53  1  0.66872400  0.25060800  0.05090200  1
  O  O54  1  0.64379300  0.22376300  0.79022600  1
  O  O55  1  0.64379300  0.77623700  0.29022600  1
  O  O56  1  0.76666200  0.08849300  0.94627100  1
  O  O57  1  0.76666200  0.91150700  0.44627100  1
  O  O58  1  0.76890550  0.00944450  0.77090600  1
  O  O59  1  0.76890550  0.99055550  0.27090600  1
  O  O60  1  0.42975100  0.37004300  0.62892100  1
  O  O61  1  0.42975100  0.62995700  0.12892100  1
  O  O62  1  0.64485550  0.49814750  0.79827300  1
  O  O63  1  0.64485550  0.50185250  0.29827300  1
  O  O64  1  0.82978700  0.34994200  0.63533600  1
  O  O65  1  0.82978700  0.65005800  0.13533600  1
  O  O66  1  0.68270200  0.52600800  0.54054000  1
  O  O67  1  0.68270200  0.47399200  0.04054000  1
  O  O68  1  0.80366200  0.63075700  0.94656000  1
  O  O69  1  0.80366200  0.36924300  0.44656000  1
  O  O70  1  0.75664400  0.71367900  0.77176000  1
  O  O71  1  0.75664400  0.28632100  0.27176000  1
  O  O72  1  0.96482750  0.27201550  0.98262400  1
  O  O73  1  0.96482750  0.72798450  0.48262400  1
  O  O74  1  0.94428400  0.86265800  0.91865600  1
  O  O75  1  0.02575900  0.50547900  0.56680100  1
  O  O76  1  0.94428400  0.13734200  0.41865600  1
  O  O77  1  0.97534000  0.53504000  0.82457900  1
  O  O78  1  0.02575900  0.49452100  0.06680100  1
  O  O79  1  0.97534000  0.46496000  0.32457900  1
  O  O80  1  0.93042300  0.12699600  0.60397100  1
  O  O81  1  0.93042300  0.87300400  0.10397100  1
  O  O82  1  0.16872400  0.24939200  0.55090200  1
  O  O83  1  0.16872400  0.75060800  0.05090200  1
  O  O84  1  0.14379300  0.72376300  0.79022600  1
  O  O85  1  0.14379300  0.27623700  0.29022600  1
  O  O86  1  0.26666200  0.58849300  0.94627100  1
  O  O87  1  0.26666200  0.41150700  0.44627100  1
  O  O88  1  0.26890550  0.50944450  0.77090600  1
  O  O89  1  0.26890550  0.49055550  0.27090600  1
  O  O90  1  0.92975100  0.87004300  0.62892100  1
  O  O91  1  0.92975100  0.12995700  0.12892100  1
