# generated using pymatgen
data_Ir2S3
_symmetry_space_group_name_H-M   'P 1'
_cell_length_a   6.02780612
_cell_length_b   6.02780612
_cell_length_c   15.89903587
_cell_angle_alpha   90.00000000
_cell_angle_beta   90.00000000
_cell_angle_gamma   120.00000000
_symmetry_Int_Tables_number   1
_chemical_formula_structural   Ir2S3
_chemical_formula_sum   'Ir12 S18'
_cell_volume   500.28786674
_cell_formula_units_Z   6
loop_
 _symmetry_equiv_pos_site_id
 _symmetry_equiv_pos_as_xyz
  1  'x, y, z'
loop_
 _atom_site_type_symbol
 _atom_site_label
 _atom_site_symmetry_multiplicity
 _atom_site_fract_x
 _atom_site_fract_y
 _atom_site_fract_z
 _atom_site_occupancy
  Ir  Ir0  1  0.00000000  0.00000000  0.14829800  1
  Ir  Ir1  1  0.33333333  0.66666667  0.01836867  1
  Ir  Ir2  1  0.33333333  0.66666667  0.31496467  1
  Ir  Ir3  1  0.66666667  0.33333333  0.18503533  1
  Ir  Ir4  1  0.66666667  0.33333333  0.48163133  1
  Ir  Ir5  1  0.00000000  0.00000000  0.35170200  1
  Ir  Ir6  1  0.00000000  0.00000000  0.64829800  1
  Ir  Ir7  1  0.33333333  0.66666667  0.51836867  1
  Ir  Ir8  1  0.33333333  0.66666667  0.81496467  1
  Ir  Ir9  1  0.66666667  0.33333333  0.68503533  1
  Ir  Ir10  1  0.66666667  0.33333333  0.98163133  1
  Ir  Ir11  1  0.00000000  0.00000000  0.85170200  1
  S  S12  1  0.66666667  0.62983233  0.08333333  1
  S  S13  1  0.37016767  0.03683433  0.08333333  1
  S  S14  1  0.96316567  0.33333333  0.08333333  1
  S  S15  1  0.70350100  0.00000000  0.25000000  1
  S  S16  1  0.29649900  0.29649900  0.25000000  1
  S  S17  1  0.00000000  0.70350100  0.25000000  1
  S  S18  1  0.33333333  0.96316567  0.41666667  1
  S  S19  1  0.03683433  0.37016767  0.41666667  1
  S  S20  1  0.62983233  0.66666667  0.41666667  1
  S  S21  1  0.37016767  0.33333333  0.58333333  1
  S  S22  1  0.96316567  0.62983233  0.58333333  1
  S  S23  1  0.66666667  0.03683433  0.58333333  1
  S  S24  1  0.00000000  0.29649900  0.75000000  1
  S  S25  1  0.70350100  0.70350100  0.75000000  1
  S  S26  1  0.29649900  0.00000000  0.75000000  1
  S  S27  1  0.03683433  0.66666667  0.91666667  1
  S  S28  1  0.62983233  0.96316567  0.91666667  1
  S  S29  1  0.33333333  0.37016767  0.91666667  1
