# generated using pymatgen
data_Na2P2PdO7
_symmetry_space_group_name_H-M   'P 1'
_cell_length_a   14.86581400
_cell_length_b   5.99067800
_cell_length_c   8.05775238
_cell_angle_alpha   90.00000000
_cell_angle_beta   114.22094648
_cell_angle_gamma   90.00000000
_symmetry_Int_Tables_number   1
_chemical_formula_structural   Na2P2PdO7
_chemical_formula_sum   'Na8 P8 Pd4 O28'
_cell_volume   654.42402248
_cell_formula_units_Z   4
loop_
 _symmetry_equiv_pos_site_id
 _symmetry_equiv_pos_as_xyz
  1  'x, y, z'
loop_
 _atom_site_type_symbol
 _atom_site_label
 _atom_site_symmetry_multiplicity
 _atom_site_fract_x
 _atom_site_fract_y
 _atom_site_fract_z
 _atom_site_occupancy
  Na  Na0  1  0.27323250  0.63743950  0.69730300  1
  Na  Na1  1  0.22676750  0.13743950  0.80269700  1
  Na  Na2  1  0.22676750  0.86256050  0.30269700  1
  Na  Na3  1  0.27323250  0.36256050  0.19730300  1
  Na  Na4  1  0.77323250  0.13743950  0.69730300  1
  Na  Na5  1  0.72676750  0.63743950  0.80269700  1
  Na  Na6  1  0.72676750  0.36256050  0.30269700  1
  Na  Na7  1  0.77323250  0.86256050  0.19730300  1
  P  P8  1  0.39418550  0.15819850  0.65852200  1
  P  P9  1  0.10581450  0.65819850  0.84147800  1
  P  P10  1  0.10581450  0.34180150  0.34147800  1
  P  P11  1  0.39418550  0.84180150  0.15852200  1
  P  P12  1  0.89418550  0.65819850  0.65852200  1
  P  P13  1  0.60581450  0.15819850  0.84147800  1
  P  P14  1  0.60581450  0.84180150  0.34147800  1
  P  P15  1  0.89418550  0.34180150  0.15852200  1
  Pd  Pd16  1  0.00000000  0.00000000  0.50000000  1
  Pd  Pd17  1  0.00000000  0.00000000  0.00000000  1
  Pd  Pd18  1  0.50000000  0.50000000  0.50000000  1
  Pd  Pd19  1  0.50000000  0.50000000  0.00000000  1
  O  O20  1  0.39321250  0.71975550  0.98839900  1
  O  O21  1  0.10678750  0.21975550  0.51160100  1
  O  O22  1  0.10678750  0.78024450  0.01160100  1
  O  O23  1  0.39321250  0.28024450  0.48839900  1
  O  O24  1  0.11316300  0.82202300  0.69686800  1
  O  O25  1  0.38683700  0.32202300  0.80313200  1
  O  O26  1  0.38683700  0.67797700  0.30313200  1
  O  O27  1  0.11316300  0.17797700  0.19686800  1
  O  O28  1  0.00000000  0.53233300  0.75000000  1
  O  O29  1  0.00000000  0.46766700  0.25000000  1
  O  O30  1  0.18661450  0.51435250  0.39358600  1
  O  O31  1  0.31338550  0.01435250  0.10641400  1
  O  O32  1  0.31338550  0.98564750  0.60641400  1
  O  O33  1  0.18661450  0.48564750  0.89358600  1
  O  O34  1  0.89321250  0.21975550  0.98839900  1
  O  O35  1  0.60678750  0.71975550  0.51160100  1
  O  O36  1  0.60678750  0.28024450  0.01160100  1
  O  O37  1  0.89321250  0.78024450  0.48839900  1
  O  O38  1  0.61316300  0.32202300  0.69686800  1
  O  O39  1  0.88683700  0.82202300  0.80313200  1
  O  O40  1  0.88683700  0.17797700  0.30313200  1
  O  O41  1  0.61316300  0.67797700  0.19686800  1
  O  O42  1  0.50000000  0.03233300  0.75000000  1
  O  O43  1  0.50000000  0.96766700  0.25000000  1
  O  O44  1  0.68661450  0.01435250  0.39358600  1
  O  O45  1  0.81338550  0.51435250  0.10641400  1
  O  O46  1  0.81338550  0.48564750  0.60641400  1
  O  O47  1  0.68661450  0.98564750  0.89358600  1
