# generated using pymatgen
data_Ba2Ca(BO2)6
_symmetry_space_group_name_H-M   'P 1'
_cell_length_a   7.24217775
_cell_length_b   7.24217775
_cell_length_c   18.15310411
_cell_angle_alpha   90.00000000
_cell_angle_beta   90.00000000
_cell_angle_gamma   120.00000000
_symmetry_Int_Tables_number   1
_chemical_formula_structural   Ba2Ca(BO2)6
_chemical_formula_sum   'Ba6 Ca3 B18 O36'
_cell_volume   824.55549363
_cell_formula_units_Z   3
loop_
 _symmetry_equiv_pos_site_id
 _symmetry_equiv_pos_as_xyz
  1  'x, y, z'
loop_
 _atom_site_type_symbol
 _atom_site_label
 _atom_site_symmetry_multiplicity
 _atom_site_fract_x
 _atom_site_fract_y
 _atom_site_fract_z
 _atom_site_occupancy
  Ba  Ba0  1  0.66666667  0.33333333  0.12755933  1
  Ba  Ba1  1  0.00000000  0.00000000  0.20577400  1
  Ba  Ba2  1  0.33333333  0.66666667  0.46089267  1
  Ba  Ba3  1  0.66666667  0.33333333  0.53910733  1
  Ba  Ba4  1  0.00000000  0.00000000  0.79422600  1
  Ba  Ba5  1  0.33333333  0.66666667  0.87244067  1
  Ca  Ca6  1  0.00000000  0.00000000  0.00000000  1
  Ca  Ca7  1  0.66666667  0.33333333  0.33333333  1
  Ca  Ca8  1  0.33333333  0.66666667  0.66666667  1
  B  B9  1  0.38009833  0.49589567  0.25054367  1
  B  B10  1  0.55086933  0.71343167  0.08278967  1
  B  B11  1  0.28656833  0.83743767  0.08278967  1
  B  B12  1  0.16256233  0.44913067  0.08278967  1
  B  B13  1  0.11579733  0.61990167  0.25054367  1
  B  B14  1  0.50410433  0.88420267  0.25054367  1
  B  B15  1  0.04676500  0.82922900  0.58387700  1
  B  B16  1  0.21753600  0.04676500  0.41612300  1
  B  B17  1  0.95323500  0.17077100  0.41612300  1
  B  B18  1  0.82922900  0.78246400  0.41612300  1
  B  B19  1  0.78246400  0.95323500  0.58387700  1
  B  B20  1  0.17077100  0.21753600  0.58387700  1
  B  B21  1  0.71343167  0.16256233  0.91721033  1
  B  B22  1  0.88420267  0.38009833  0.74945633  1
  B  B23  1  0.61990167  0.50410433  0.74945633  1
  B  B24  1  0.49589567  0.11579733  0.74945633  1
  B  B25  1  0.44913067  0.28656833  0.91721033  1
  B  B26  1  0.83743767  0.55086933  0.91721033  1
  O  O27  1  0.37817033  0.50117467  0.08126867  1
  O  O28  1  0.12300433  0.62182967  0.08126867  1
  O  O29  1  0.49882533  0.87699567  0.08126867  1
  O  O30  1  0.16784133  0.45633767  0.25206467  1
  O  O31  1  0.75032567  0.75094033  0.08641133  1
  O  O32  1  0.54366233  0.71150367  0.25206467  1
  O  O33  1  0.28849633  0.83215867  0.25206467  1
  O  O34  1  0.00061467  0.24967433  0.08641133  1
  O  O35  1  0.24905967  0.99938533  0.08641133  1
  O  O36  1  0.66605200  0.08365900  0.24692200  1
  O  O37  1  0.41760700  0.33394800  0.24692200  1
  O  O38  1  0.91634100  0.58239300  0.24692200  1
  O  O39  1  0.04483700  0.83450800  0.41460200  1
  O  O40  1  0.78967100  0.95516300  0.41460200  1
  O  O41  1  0.16549200  0.21032900  0.41460200  1
  O  O42  1  0.83450800  0.78967100  0.58539800  1
  O  O43  1  0.41699233  0.08427367  0.41974467  1
  O  O44  1  0.21032900  0.04483700  0.58539800  1
  O  O45  1  0.95516300  0.16549200  0.58539800  1
  O  O46  1  0.66728133  0.58300767  0.41974467  1
  O  O47  1  0.91572633  0.33271867  0.41974467  1
  O  O48  1  0.33271867  0.41699233  0.58025533  1
  O  O49  1  0.08427367  0.66728133  0.58025533  1
  O  O50  1  0.58300767  0.91572633  0.58025533  1
  O  O51  1  0.71150367  0.16784133  0.74793533  1
  O  O52  1  0.45633767  0.28849633  0.74793533  1
  O  O53  1  0.83215867  0.54366233  0.74793533  1
  O  O54  1  0.50117467  0.12300433  0.91873133  1
  O  O55  1  0.08365900  0.41760700  0.75307800  1
  O  O56  1  0.87699567  0.37817033  0.91873133  1
  O  O57  1  0.62182967  0.49882533  0.91873133  1
  O  O58  1  0.33394800  0.91634100  0.75307800  1
  O  O59  1  0.58239300  0.66605200  0.75307800  1
  O  O60  1  0.99938533  0.75032567  0.91358867  1
  O  O61  1  0.75094033  0.00061467  0.91358867  1
  O  O62  1  0.24967433  0.24905967  0.91358867  1
