# generated using pymatgen
data_ReTeSeCl4
_symmetry_space_group_name_H-M   'P 1'
_cell_length_a   11.16323000
_cell_length_b   11.16323000
_cell_length_c   13.83795200
_cell_angle_alpha   90.00000000
_cell_angle_beta   90.00000000
_cell_angle_gamma   90.00000000
_symmetry_Int_Tables_number   1
_chemical_formula_structural   ReTeSeCl4
_chemical_formula_sum   'Re8 Te8 Se8 Cl32'
_cell_volume   1724.45380676
_cell_formula_units_Z   8
loop_
 _symmetry_equiv_pos_site_id
 _symmetry_equiv_pos_as_xyz
  1  'x, y, z'
loop_
 _atom_site_type_symbol
 _atom_site_label
 _atom_site_symmetry_multiplicity
 _atom_site_fract_x
 _atom_site_fract_y
 _atom_site_fract_z
 _atom_site_occupancy
  Re  Re0  1  0.03190500  0.38094200  0.17716400  1
  Re  Re1  1  0.96809500  0.61905800  0.17716400  1
  Re  Re2  1  0.11905800  0.53190500  0.32283600  1
  Re  Re3  1  0.88094200  0.46809500  0.32283600  1
  Re  Re4  1  0.53190500  0.88094200  0.67716400  1
  Re  Re5  1  0.46809500  0.11905800  0.67716400  1
  Re  Re6  1  0.61905800  0.03190500  0.82283600  1
  Re  Re7  1  0.38094200  0.96809500  0.82283600  1
  Te  Te8  1  0.20251000  0.21245500  0.11945900  1
  Te  Te9  1  0.29749000  0.28754500  0.61945900  1
  Te  Te10  1  0.78754500  0.20251000  0.88054100  1
  Te  Te11  1  0.71245500  0.29749000  0.38054100  1
  Te  Te12  1  0.70251000  0.71245500  0.61945900  1
  Te  Te13  1  0.79749000  0.78754500  0.11945900  1
  Te  Te14  1  0.28754500  0.70251000  0.38054100  1
  Te  Te15  1  0.21245500  0.79749000  0.88054100  1
  Se  Se16  1  0.17465850  0.54645150  0.15185250  1
  Se  Se17  1  0.32534150  0.95354850  0.65185250  1
  Se  Se18  1  0.45354850  0.17465850  0.84814750  1
  Se  Se19  1  0.04645150  0.32534150  0.34814750  1
  Se  Se20  1  0.67465850  0.04645150  0.65185250  1
  Se  Se21  1  0.82534150  0.45354850  0.15185250  1
  Se  Se22  1  0.95354850  0.67465850  0.34814750  1
  Se  Se23  1  0.54645150  0.82534150  0.84814750  1
  Cl  Cl24  1  0.38187750  0.31867550  0.07750650  1
  Cl  Cl25  1  0.11812250  0.18132450  0.57750650  1
  Cl  Cl26  1  0.18132450  0.88187750  0.42249350  1
  Cl  Cl27  1  0.31867550  0.61812250  0.92249350  1
  Cl  Cl28  1  0.05628250  0.35430450  0.99882050  1
  Cl  Cl29  1  0.44371750  0.14569550  0.49882050  1
  Cl  Cl30  1  0.64569550  0.05628250  0.00117950  1
  Cl  Cl31  1  0.85430450  0.44371750  0.50117950  1
  Cl  Cl32  1  0.95468350  0.17304550  0.15676450  1
  Cl  Cl33  1  0.04531650  0.82695450  0.15676450  1
  Cl  Cl34  1  0.32695450  0.45468350  0.34323550  1
  Cl  Cl35  1  0.67304550  0.54531650  0.34323550  1
  Cl  Cl36  1  0.28123200  0.11523000  0.25835000  1
  Cl  Cl37  1  0.71876800  0.88477000  0.25835000  1
  Cl  Cl38  1  0.38477000  0.78123200  0.24165000  1
  Cl  Cl39  1  0.61523000  0.21876800  0.24165000  1
  Cl  Cl40  1  0.88187750  0.81867550  0.57750650  1
  Cl  Cl41  1  0.61812250  0.68132450  0.07750650  1
  Cl  Cl42  1  0.68132450  0.38187750  0.92249350  1
  Cl  Cl43  1  0.81867550  0.11812250  0.42249350  1
  Cl  Cl44  1  0.55628250  0.85430450  0.49882050  1
  Cl  Cl45  1  0.94371750  0.64569550  0.99882050  1
  Cl  Cl46  1  0.14569550  0.55628250  0.50117950  1
  Cl  Cl47  1  0.35430450  0.94371750  0.00117950  1
  Cl  Cl48  1  0.45468350  0.67304550  0.65676450  1
  Cl  Cl49  1  0.54531650  0.32695450  0.65676450  1
  Cl  Cl50  1  0.82695450  0.95468350  0.84323550  1
  Cl  Cl51  1  0.17304550  0.04531650  0.84323550  1
  Cl  Cl52  1  0.78123200  0.61523000  0.75835000  1
  Cl  Cl53  1  0.21876800  0.38477000  0.75835000  1
  Cl  Cl54  1  0.88477000  0.28123200  0.74165000  1
  Cl  Cl55  1  0.11523000  0.71876800  0.74165000  1
