# generated using pymatgen
data_Rb2TeO3
_symmetry_space_group_name_H-M   'P 1'
_cell_length_a   11.84238800
_cell_length_b   6.58960800
_cell_length_c   7.67497273
_cell_angle_alpha   90.00000000
_cell_angle_beta   94.98457085
_cell_angle_gamma   90.00000000
_symmetry_Int_Tables_number   1
_chemical_formula_structural   Rb2TeO3
_chemical_formula_sum   'Rb8 Te4 O12'
_cell_volume   596.66443176
_cell_formula_units_Z   4
loop_
 _symmetry_equiv_pos_site_id
 _symmetry_equiv_pos_as_xyz
  1  'x, y, z'
loop_
 _atom_site_type_symbol
 _atom_site_label
 _atom_site_symmetry_multiplicity
 _atom_site_fract_x
 _atom_site_fract_y
 _atom_site_fract_z
 _atom_site_occupancy
  Rb  Rb0  1  0.00000000  0.00000000  0.00000000  1
  Rb  Rb1  1  0.68286100  0.00000000  0.13827400  1
  Rb  Rb2  1  0.00000000  0.00000000  0.50000000  1
  Rb  Rb3  1  0.81713900  0.50000000  0.86172600  1
  Rb  Rb4  1  0.50000000  0.50000000  0.00000000  1
  Rb  Rb5  1  0.18286100  0.50000000  0.13827400  1
  Rb  Rb6  1  0.50000000  0.50000000  0.50000000  1
  Rb  Rb7  1  0.31713900  0.00000000  0.86172600  1
  Te  Te8  1  0.66306200  0.00000000  0.66015700  1
  Te  Te9  1  0.83693800  0.50000000  0.33984300  1
  Te  Te10  1  0.16306200  0.50000000  0.66015700  1
  Te  Te11  1  0.33693800  0.00000000  0.33984300  1
  O  O12  1  0.61299350  0.22182850  0.78790300  1
  O  O13  1  0.88700650  0.72182850  0.21209700  1
  O  O14  1  0.88700650  0.27817150  0.21209700  1
  O  O15  1  0.61299350  0.77817150  0.78790300  1
  O  O16  1  0.68090700  0.50000000  0.26918900  1
  O  O17  1  0.81909300  0.00000000  0.73081100  1
  O  O18  1  0.11299350  0.72182850  0.78790300  1
  O  O19  1  0.38700650  0.22182850  0.21209700  1
  O  O20  1  0.38700650  0.77817150  0.21209700  1
  O  O21  1  0.11299350  0.27817150  0.78790300  1
  O  O22  1  0.18090700  0.00000000  0.26918900  1
  O  O23  1  0.31909300  0.50000000  0.73081100  1
