# generated using pymatgen
data_TiH8(NF3)2
_symmetry_space_group_name_H-M   'P 1'
_cell_length_a   5.82372320
_cell_length_b   5.82372320
_cell_length_c   4.88648100
_cell_angle_alpha   90.00000000
_cell_angle_beta   90.00000000
_cell_angle_gamma   120.00000000
_symmetry_Int_Tables_number   1
_chemical_formula_structural   TiH8(NF3)2
_chemical_formula_sum   'Ti1 H8 N2 F6'
_cell_volume   143.52524448
_cell_formula_units_Z   1
loop_
 _symmetry_equiv_pos_site_id
 _symmetry_equiv_pos_as_xyz
  1  'x, y, z'
loop_
 _atom_site_type_symbol
 _atom_site_label
 _atom_site_symmetry_multiplicity
 _atom_site_fract_x
 _atom_site_fract_y
 _atom_site_fract_z
 _atom_site_occupancy
  Ti  Ti0  1  0.00000000  0.00000000  0.00000000  1
  H  H1  1  0.14125400  0.57062700  0.23581200  1
  H  H2  1  0.42937300  0.85874600  0.23581200  1
  H  H3  1  0.42937300  0.57062700  0.23581200  1
  H  H4  1  0.66666667  0.33333333  0.48283400  1
  H  H5  1  0.33333333  0.66666667  0.51716600  1
  H  H6  1  0.57062700  0.42937300  0.76418800  1
  H  H7  1  0.57062700  0.14125400  0.76418800  1
  H  H8  1  0.85874600  0.42937300  0.76418800  1
  N  N9  1  0.33333333  0.66666667  0.30579700  1
  N  N10  1  0.66666667  0.33333333  0.69420300  1
  F  F11  1  0.84342900  0.15657100  0.21652000  1
  F  F12  1  0.84342900  0.68685800  0.21652000  1
  F  F13  1  0.31314200  0.15657100  0.21652000  1
  F  F14  1  0.68685800  0.84342900  0.78348000  1
  F  F15  1  0.15657100  0.31314200  0.78348000  1
  F  F16  1  0.15657100  0.84342900  0.78348000  1
