# generated using pymatgen
data_MgH8(ClO6)2
_symmetry_space_group_name_H-M   'P 1'
_cell_length_a   11.35206400
_cell_length_b   7.90636600
_cell_length_c   6.00131726
_cell_angle_alpha   90.00000000
_cell_angle_beta   112.18769433
_cell_angle_gamma   90.00000000
_symmetry_Int_Tables_number   1
_chemical_formula_structural   MgH8(ClO6)2
_chemical_formula_sum   'Mg2 H16 Cl4 O24'
_cell_volume   498.75432152
_cell_formula_units_Z   2
loop_
 _symmetry_equiv_pos_site_id
 _symmetry_equiv_pos_as_xyz
  1  'x, y, z'
loop_
 _atom_site_type_symbol
 _atom_site_label
 _atom_site_symmetry_multiplicity
 _atom_site_fract_x
 _atom_site_fract_y
 _atom_site_fract_z
 _atom_site_occupancy
  Mg  Mg0  1  0.00000000  0.00000000  0.00000000  1
  Mg  Mg1  1  0.50000000  0.50000000  0.00000000  1
  H  H2  1  0.14188350  0.90054650  0.73670300  1
  H  H3  1  0.14188350  0.09945350  0.73670300  1
  H  H4  1  0.45068300  0.83120100  0.86527300  1
  H  H5  1  0.54931700  0.83120100  0.13472700  1
  H  H6  1  0.45068300  0.16879900  0.86527300  1
  H  H7  1  0.54931700  0.16879900  0.13472700  1
  H  H8  1  0.85811650  0.90054650  0.26329700  1
  H  H9  1  0.85811650  0.09945350  0.26329700  1
  H  H10  1  0.64188350  0.40054650  0.73670300  1
  H  H11  1  0.64188350  0.59945350  0.73670300  1
  H  H12  1  0.95068300  0.33120100  0.86527300  1
  H  H13  1  0.04931700  0.33120100  0.13472700  1
  H  H14  1  0.95068300  0.66879900  0.86527300  1
  H  H15  1  0.04931700  0.66879900  0.13472700  1
  H  H16  1  0.35811650  0.40054650  0.26329700  1
  H  H17  1  0.35811650  0.59945350  0.26329700  1
  Cl  Cl18  1  0.30192300  0.00000000  0.39725200  1
  Cl  Cl19  1  0.69807700  0.00000000  0.60274800  1
  Cl  Cl20  1  0.80192300  0.50000000  0.39725200  1
  Cl  Cl21  1  0.19807700  0.50000000  0.60274800  1
  O  O22  1  0.11618600  0.00000000  0.80383700  1
  O  O23  1  0.16312300  0.00000000  0.34124000  1
  O  O24  1  0.33728400  0.84937000  0.30069000  1
  O  O25  1  0.50000000  0.75727000  0.00000000  1
  O  O26  1  0.36390300  0.00000000  0.66190200  1
  O  O27  1  0.33728400  0.15063000  0.30069000  1
  O  O28  1  0.66271600  0.84937000  0.69931000  1
  O  O29  1  0.63609700  0.00000000  0.33809800  1
  O  O30  1  0.50000000  0.24273000  0.00000000  1
  O  O31  1  0.66271600  0.15063000  0.69931000  1
  O  O32  1  0.83687700  0.00000000  0.65876000  1
  O  O33  1  0.88381400  0.00000000  0.19616300  1
  O  O34  1  0.61618600  0.50000000  0.80383700  1
  O  O35  1  0.66312300  0.50000000  0.34124000  1
  O  O36  1  0.83728400  0.34937000  0.30069000  1
  O  O37  1  0.00000000  0.25727000  0.00000000  1
  O  O38  1  0.86390300  0.50000000  0.66190200  1
  O  O39  1  0.83728400  0.65063000  0.30069000  1
  O  O40  1  0.16271600  0.34937000  0.69931000  1
  O  O41  1  0.13609700  0.50000000  0.33809800  1
  O  O42  1  0.00000000  0.74273000  0.00000000  1
  O  O43  1  0.16271600  0.65063000  0.69931000  1
  O  O44  1  0.33687700  0.50000000  0.65876000  1
  O  O45  1  0.38381400  0.50000000  0.19616300  1
