# generated using pymatgen
data_LiFe2O2F3
_symmetry_space_group_name_H-M   'P 1'
_cell_length_a   10.04695200
_cell_length_b   3.84857600
_cell_length_c   10.21524674
_cell_angle_alpha   90.00000000
_cell_angle_beta   90.82452931
_cell_angle_gamma   90.00000000
_symmetry_Int_Tables_number   1
_chemical_formula_structural   LiFe2O2F3
_chemical_formula_sum   'Li4 Fe8 O8 F12'
_cell_volume   394.94651345
_cell_formula_units_Z   4
loop_
 _symmetry_equiv_pos_site_id
 _symmetry_equiv_pos_as_xyz
  1  'x, y, z'
loop_
 _atom_site_type_symbol
 _atom_site_label
 _atom_site_symmetry_multiplicity
 _atom_site_fract_x
 _atom_site_fract_y
 _atom_site_fract_z
 _atom_site_occupancy
  Li  Li0  1  0.86883900  0.00000000  0.94260100  1
  Li  Li1  1  0.63116100  0.50000000  0.05739900  1
  Li  Li2  1  0.36883900  0.50000000  0.94260100  1
  Li  Li3  1  0.13116100  0.00000000  0.05739900  1
  Fe  Fe4  1  0.86253900  0.00000000  0.54759400  1
  Fe  Fe5  1  0.81509700  0.00000000  0.25069100  1
  Fe  Fe6  1  0.68490300  0.50000000  0.74930900  1
  Fe  Fe7  1  0.63746100  0.50000000  0.45240600  1
  Fe  Fe8  1  0.36253900  0.50000000  0.54759400  1
  Fe  Fe9  1  0.31509700  0.50000000  0.25069100  1
  Fe  Fe10  1  0.18490300  0.00000000  0.74930900  1
  Fe  Fe11  1  0.13746100  0.00000000  0.45240600  1
  O  O12  1  0.95650000  0.00000000  0.38016300  1
  O  O13  1  0.80409200  0.50000000  0.58150500  1
  O  O14  1  0.69590800  0.00000000  0.41849500  1
  O  O15  1  0.54350000  0.50000000  0.61983700  1
  O  O16  1  0.45650000  0.50000000  0.38016300  1
  O  O17  1  0.30409200  0.00000000  0.58150500  1
  O  O18  1  0.19590800  0.50000000  0.41849500  1
  O  O19  1  0.04350000  0.00000000  0.61983700  1
  F  F20  1  0.94855500  0.00000000  0.11732600  1
  F  F21  1  0.80941800  0.50000000  0.90401800  1
  F  F22  1  0.74117800  0.00000000  0.74568300  1
  F  F23  1  0.75882200  0.50000000  0.25431700  1
  F  F24  1  0.69058200  0.00000000  0.09598200  1
  F  F25  1  0.55144500  0.50000000  0.88267400  1
  F  F26  1  0.44855500  0.50000000  0.11732600  1
  F  F27  1  0.30941800  0.00000000  0.90401800  1
  F  F28  1  0.24117800  0.50000000  0.74568300  1
  F  F29  1  0.25882200  0.00000000  0.25431700  1
  F  F30  1  0.19058200  0.50000000  0.09598200  1
  F  F31  1  0.05144500  0.00000000  0.88267400  1
