# generated using pymatgen
data_LiAlB14
_symmetry_space_group_name_H-M   'P 1'
_cell_length_a   5.85398600
_cell_length_b   8.13222000
_cell_length_c   10.34650400
_cell_angle_alpha   90.00000000
_cell_angle_beta   90.00000000
_cell_angle_gamma   90.00000000
_symmetry_Int_Tables_number   1
_chemical_formula_structural   LiAlB14
_chemical_formula_sum   'Li4 Al4 B56'
_cell_volume   492.55465577
_cell_formula_units_Z   4
loop_
 _symmetry_equiv_pos_site_id
 _symmetry_equiv_pos_as_xyz
  1  'x, y, z'
loop_
 _atom_site_type_symbol
 _atom_site_label
 _atom_site_symmetry_multiplicity
 _atom_site_fract_x
 _atom_site_fract_y
 _atom_site_fract_z
 _atom_site_occupancy
  Li  Li0  1  0.00000000  0.35015100  0.75000000  1
  Li  Li1  1  0.00000000  0.64984900  0.25000000  1
  Li  Li2  1  0.50000000  0.85015100  0.25000000  1
  Li  Li3  1  0.50000000  0.14984900  0.75000000  1
  Al  Al4  1  0.25000000  0.25000000  0.25000000  1
  Al  Al5  1  0.75000000  0.25000000  0.25000000  1
  Al  Al6  1  0.75000000  0.75000000  0.75000000  1
  Al  Al7  1  0.25000000  0.75000000  0.75000000  1
  B  B8  1  0.34115250  0.33562250  0.93785550  1
  B  B9  1  0.00000000  0.61965000  0.64947900  1
  B  B10  1  0.74885600  0.54355900  0.57970800  1
  B  B11  1  0.74885600  0.45644100  0.42029200  1
  B  B12  1  0.25114400  0.54355900  0.92029200  1
  B  B13  1  0.25114400  0.45644100  0.07970800  1
  B  B14  1  0.25114400  0.45644100  0.42029200  1
  B  B15  1  0.25114400  0.54355900  0.57970800  1
  B  B16  1  0.74885600  0.45644100  0.07970800  1
  B  B17  1  0.74885600  0.54355900  0.92029200  1
  B  B18  1  0.15884750  0.83562250  0.06214450  1
  B  B19  1  0.15884750  0.16437750  0.93785550  1
  B  B20  1  0.84115250  0.16437750  0.93785550  1
  B  B21  1  0.34115250  0.66437750  0.06214450  1
  B  B22  1  0.84115250  0.83562250  0.06214450  1
  B  B23  1  0.00000000  0.61965000  0.85052100  1
  B  B24  1  0.65884750  0.66437750  0.06214450  1
  B  B25  1  0.65884750  0.33562250  0.93785550  1
  B  B26  1  0.00000000  0.17005200  0.08535400  1
  B  B27  1  0.00000000  0.82994800  0.91464600  1
  B  B28  1  0.50000000  0.67005200  0.91464600  1
  B  B29  1  0.50000000  0.32994800  0.08535400  1
  B  B30  1  0.50000000  0.46817000  0.66646300  1
  B  B31  1  0.50000000  0.53183000  0.33353700  1
  B  B32  1  0.50000000  0.46817000  0.83353700  1
  B  B33  1  0.50000000  0.53183000  0.16646300  1
  B  B34  1  0.00000000  0.38035000  0.14947900  1
  B  B35  1  0.00000000  0.38035000  0.35052100  1
  B  B36  1  0.84115250  0.83562250  0.43785550  1
  B  B37  1  0.50000000  0.11965000  0.14947900  1
  B  B38  1  0.24885600  0.04355900  0.07970800  1
  B  B39  1  0.24885600  0.95644100  0.92029200  1
  B  B40  1  0.75114400  0.04355900  0.42029200  1
  B  B41  1  0.75114400  0.95644100  0.57970800  1
  B  B42  1  0.75114400  0.95644100  0.92029200  1
  B  B43  1  0.75114400  0.04355900  0.07970800  1
  B  B44  1  0.24885600  0.95644100  0.57970800  1
  B  B45  1  0.24885600  0.04355900  0.42029200  1
  B  B46  1  0.65884750  0.33562250  0.56214450  1
  B  B47  1  0.65884750  0.66437750  0.43785550  1
  B  B48  1  0.34115250  0.66437750  0.43785550  1
  B  B49  1  0.84115250  0.16437750  0.56214450  1
  B  B50  1  0.34115250  0.33562250  0.56214450  1
  B  B51  1  0.50000000  0.11965000  0.35052100  1
  B  B52  1  0.15884750  0.16437750  0.56214450  1
  B  B53  1  0.15884750  0.83562250  0.43785550  1
  B  B54  1  0.50000000  0.67005200  0.58535400  1
  B  B55  1  0.50000000  0.32994800  0.41464600  1
  B  B56  1  0.00000000  0.17005200  0.41464600  1
  B  B57  1  0.00000000  0.82994800  0.58535400  1
  B  B58  1  0.00000000  0.96817000  0.16646300  1
  B  B59  1  0.00000000  0.03183000  0.83353700  1
  B  B60  1  0.00000000  0.96817000  0.33353700  1
  B  B61  1  0.00000000  0.03183000  0.66646300  1
  B  B62  1  0.50000000  0.88035000  0.64947900  1
  B  B63  1  0.50000000  0.88035000  0.85052100  1
