# generated using pymatgen
data_Fe4O5F3
_symmetry_space_group_name_H-M   'P 1'
_cell_length_a   6.41357600
_cell_length_b   7.02762800
_cell_length_c   6.04836700
_cell_angle_alpha   90.00000000
_cell_angle_beta   90.00000000
_cell_angle_gamma   90.00000000
_symmetry_Int_Tables_number   1
_chemical_formula_structural   Fe4O5F3
_chemical_formula_sum   'Fe8 O10 F6'
_cell_volume   272.61336603
_cell_formula_units_Z   2
loop_
 _symmetry_equiv_pos_site_id
 _symmetry_equiv_pos_as_xyz
  1  'x, y, z'
loop_
 _atom_site_type_symbol
 _atom_site_label
 _atom_site_symmetry_multiplicity
 _atom_site_fract_x
 _atom_site_fract_y
 _atom_site_fract_z
 _atom_site_occupancy
  Fe  Fe0  1  0.50000000  0.49049100  0.25710600  1
  Fe  Fe1  1  0.50000000  0.49049100  0.74289400  1
  Fe  Fe2  1  0.50000000  0.02931700  0.50000000  1
  Fe  Fe3  1  0.50000000  0.99387100  0.00000000  1
  Fe  Fe4  1  0.00000000  0.99049100  0.25710600  1
  Fe  Fe5  1  0.00000000  0.99049100  0.74289400  1
  Fe  Fe6  1  0.00000000  0.52931700  0.50000000  1
  Fe  Fe7  1  0.00000000  0.49387100  0.00000000  1
  O  O8  1  0.50000000  0.31197400  0.50000000  1
  O  O9  1  0.30604800  0.99973700  0.23835200  1
  O  O10  1  0.30604800  0.99973700  0.76164800  1
  O  O11  1  0.69395200  0.99973700  0.23835200  1
  O  O12  1  0.69395200  0.99973700  0.76164800  1
  O  O13  1  0.00000000  0.81197400  0.50000000  1
  O  O14  1  0.80604800  0.49973700  0.23835200  1
  O  O15  1  0.80604800  0.49973700  0.76164800  1
  O  O16  1  0.19395200  0.49973700  0.23835200  1
  O  O17  1  0.19395200  0.49973700  0.76164800  1
  F  F18  1  0.50000000  0.30488200  0.00000000  1
  F  F19  1  0.50000000  0.69351200  0.50000000  1
  F  F20  1  0.50000000  0.68651600  0.00000000  1
  F  F21  1  0.00000000  0.80488200  0.00000000  1
  F  F22  1  0.00000000  0.19351200  0.50000000  1
  F  F23  1  0.00000000  0.18651600  0.00000000  1
