# generated using pymatgen
data_La17Al4(Si3N11)3
_symmetry_space_group_name_H-M   'P 1'
_cell_length_a   15.45032200
_cell_length_b   15.45032200
_cell_length_c   15.45032200
_cell_angle_alpha   90.00000000
_cell_angle_beta   90.00000000
_cell_angle_gamma   90.00000000
_symmetry_Int_Tables_number   1
_chemical_formula_structural   La17Al4(Si3N11)3
_chemical_formula_sum   'La68 Al16 Si36 N132'
_cell_volume   3688.18421642
_cell_formula_units_Z   4
loop_
 _symmetry_equiv_pos_site_id
 _symmetry_equiv_pos_as_xyz
  1  'x, y, z'
loop_
 _atom_site_type_symbol
 _atom_site_label
 _atom_site_symmetry_multiplicity
 _atom_site_fract_x
 _atom_site_fract_y
 _atom_site_fract_z
 _atom_site_occupancy
  La  La0  1  0.50000000  0.00000000  0.00000000  1
  La  La1  1  0.25000000  0.45775700  0.75000000  1
  La  La2  1  0.25000000  0.04224300  0.75000000  1
  La  La3  1  0.25000000  0.25000000  0.95775700  1
  La  La4  1  0.04224300  0.25000000  0.75000000  1
  La  La5  1  0.45775700  0.25000000  0.75000000  1
  La  La6  1  0.25000000  0.25000000  0.54224300  1
  La  La7  1  0.50000000  0.00000000  0.24193600  1
  La  La8  1  0.50000000  0.00000000  0.75806400  1
  La  La9  1  0.25806400  0.00000000  0.00000000  1
  La  La10  1  0.50000000  0.24193600  0.00000000  1
  La  La11  1  0.74193600  0.00000000  0.00000000  1
  La  La12  1  0.00000000  0.25806400  0.00000000  1
  La  La13  1  0.66276767  0.16276767  0.83723233  1
  La  La14  1  0.83723233  0.33723233  0.83723233  1
  La  La15  1  0.16276767  0.33723233  0.16276767  1
  La  La16  1  0.33723233  0.16276767  0.16276767  1
  La  La17  1  0.50000000  0.50000000  0.50000000  1
  La  La18  1  0.25000000  0.95775700  0.25000000  1
  La  La19  1  0.25000000  0.54224300  0.25000000  1
  La  La20  1  0.25000000  0.75000000  0.45775700  1
  La  La21  1  0.04224300  0.75000000  0.25000000  1
  La  La22  1  0.45775700  0.75000000  0.25000000  1
  La  La23  1  0.25000000  0.75000000  0.04224300  1
  La  La24  1  0.50000000  0.50000000  0.74193600  1
  La  La25  1  0.50000000  0.50000000  0.25806400  1
  La  La26  1  0.25806400  0.50000000  0.50000000  1
  La  La27  1  0.50000000  0.74193600  0.50000000  1
  La  La28  1  0.74193600  0.50000000  0.50000000  1
  La  La29  1  0.00000000  0.75806400  0.50000000  1
  La  La30  1  0.66276767  0.66276767  0.33723233  1
  La  La31  1  0.83723233  0.83723233  0.33723233  1
  La  La32  1  0.16276767  0.83723233  0.66276767  1
  La  La33  1  0.33723233  0.66276767  0.66276767  1
  La  La34  1  0.00000000  0.00000000  0.50000000  1
  La  La35  1  0.75000000  0.45775700  0.25000000  1
  La  La36  1  0.75000000  0.04224300  0.25000000  1
  La  La37  1  0.75000000  0.25000000  0.45775700  1
  La  La38  1  0.54224300  0.25000000  0.25000000  1
  La  La39  1  0.95775700  0.25000000  0.25000000  1
  La  La40  1  0.75000000  0.25000000  0.04224300  1
  La  La41  1  0.00000000  0.00000000  0.74193600  1
  La  La42  1  0.00000000  0.00000000  0.25806400  1
  La  La43  1  0.75806400  0.00000000  0.50000000  1
  La  La44  1  0.00000000  0.24193600  0.50000000  1
  La  La45  1  0.24193600  0.00000000  0.50000000  1
  La  La46  1  0.50000000  0.25806400  0.50000000  1
  La  La47  1  0.16276767  0.16276767  0.33723233  1
  La  La48  1  0.33723233  0.33723233  0.33723233  1
  La  La49  1  0.66276767  0.33723233  0.66276767  1
  La  La50  1  0.83723233  0.16276767  0.66276767  1
  La  La51  1  0.00000000  0.50000000  0.00000000  1
  La  La52  1  0.75000000  0.95775700  0.75000000  1
  La  La53  1  0.75000000  0.54224300  0.75000000  1
  La  La54  1  0.75000000  0.75000000  0.95775700  1
  La  La55  1  0.54224300  0.75000000  0.75000000  1
  La  La56  1  0.95775700  0.75000000  0.75000000  1
  La  La57  1  0.75000000  0.75000000  0.54224300  1
  La  La58  1  0.00000000  0.50000000  0.24193600  1
  La  La59  1  0.00000000  0.50000000  0.75806400  1
  La  La60  1  0.75806400  0.50000000  0.00000000  1
  La  La61  1  0.00000000  0.74193600  0.00000000  1
  La  La62  1  0.24193600  0.50000000  0.00000000  1
  La  La63  1  0.50000000  0.75806400  0.00000000  1
  La  La64  1  0.16276767  0.66276767  0.83723233  1
  La  La65  1  0.33723233  0.83723233  0.83723233  1
  La  La66  1  0.66276767  0.83723233  0.16276767  1
  La  La67  1  0.83723233  0.66276767  0.16276767  1
  Al  Al68  1  0.07097200  0.07097200  0.92902800  1
  Al  Al69  1  0.42902800  0.42902800  0.92902800  1
  Al  Al70  1  0.07097200  0.42902800  0.57097200  1
  Al  Al71  1  0.42902800  0.07097200  0.57097200  1
  Al  Al72  1  0.07097200  0.57097200  0.42902800  1
  Al  Al73  1  0.42902800  0.92902800  0.42902800  1
  Al  Al74  1  0.07097200  0.92902800  0.07097200  1
  Al  Al75  1  0.42902800  0.57097200  0.07097200  1
  Al  Al76  1  0.57097200  0.07097200  0.42902800  1
  Al  Al77  1  0.92902800  0.42902800  0.42902800  1
  Al  Al78  1  0.57097200  0.42902800  0.07097200  1
  Al  Al79  1  0.92902800  0.07097200  0.07097200  1
  Al  Al80  1  0.57097200  0.57097200  0.92902800  1
  Al  Al81  1  0.92902800  0.92902800  0.92902800  1
  Al  Al82  1  0.57097200  0.92902800  0.57097200  1
  Al  Al83  1  0.92902800  0.57097200  0.57097200  1
  Si  Si84  1  0.88320233  0.38320233  0.11679767  1
  Si  Si85  1  0.61679767  0.11679767  0.11679767  1
  Si  Si86  1  0.38320233  0.11679767  0.88320233  1
  Si  Si87  1  0.11679767  0.38320233  0.88320233  1
  Si  Si88  1  0.38454800  0.11545200  0.38454800  1
  Si  Si89  1  0.11545200  0.38454800  0.38454800  1
  Si  Si90  1  0.38454800  0.38454800  0.11545200  1
  Si  Si91  1  0.11545200  0.11545200  0.11545200  1
  Si  Si92  1  0.25000000  0.25000000  0.75000000  1
  Si  Si93  1  0.88320233  0.88320233  0.61679767  1
  Si  Si94  1  0.61679767  0.61679767  0.61679767  1
  Si  Si95  1  0.38320233  0.61679767  0.38320233  1
  Si  Si96  1  0.11679767  0.88320233  0.38320233  1
  Si  Si97  1  0.38454800  0.61545200  0.88454800  1
  Si  Si98  1  0.11545200  0.88454800  0.88454800  1
  Si  Si99  1  0.38454800  0.88454800  0.61545200  1
  Si  Si100  1  0.11545200  0.61545200  0.61545200  1
  Si  Si101  1  0.25000000  0.75000000  0.25000000  1
  Si  Si102  1  0.38320233  0.38320233  0.61679767  1
  Si  Si103  1  0.11679767  0.11679767  0.61679767  1
  Si  Si104  1  0.88320233  0.11679767  0.38320233  1
  Si  Si105  1  0.61679767  0.38320233  0.38320233  1
  Si  Si106  1  0.88454800  0.11545200  0.88454800  1
  Si  Si107  1  0.61545200  0.38454800  0.88454800  1
  Si  Si108  1  0.88454800  0.38454800  0.61545200  1
  Si  Si109  1  0.61545200  0.11545200  0.61545200  1
  Si  Si110  1  0.75000000  0.25000000  0.25000000  1
  Si  Si111  1  0.38320233  0.88320233  0.11679767  1
  Si  Si112  1  0.11679767  0.61679767  0.11679767  1
  Si  Si113  1  0.88320233  0.61679767  0.88320233  1
  Si  Si114  1  0.61679767  0.88320233  0.88320233  1
  Si  Si115  1  0.88454800  0.61545200  0.38454800  1
  Si  Si116  1  0.61545200  0.88454800  0.38454800  1
  Si  Si117  1  0.88454800  0.88454800  0.11545200  1
  Si  Si118  1  0.61545200  0.61545200  0.11545200  1
  Si  Si119  1  0.75000000  0.75000000  0.75000000  1
  N  N120  1  0.31532367  0.31532367  0.68467633  1
  N  N121  1  0.18467633  0.18467633  0.68467633  1
  N  N122  1  0.31532367  0.18467633  0.81532367  1
  N  N123  1  0.18467633  0.31532367  0.81532367  1
  N  N124  1  0.00000000  0.00000000  0.00000000  1
  N  N125  1  0.86150750  0.49167200  0.13849250  1
  N  N126  1  0.63849250  0.00832800  0.13849250  1
  N  N127  1  0.36150750  0.00832800  0.86150750  1
  N  N128  1  0.13849250  0.49167200  0.86150750  1
  N  N129  1  0.36150750  0.13849250  0.99167200  1
  N  N130  1  0.50832800  0.13849250  0.13849250  1
  N  N131  1  0.13849250  0.36150750  0.99167200  1
  N  N132  1  0.49167200  0.13849250  0.86150750  1
  N  N133  1  0.86150750  0.36150750  0.00832800  1
  N  N134  1  0.99167200  0.36150750  0.13849250  1
  N  N135  1  0.63849250  0.13849250  0.00832800  1
  N  N136  1  0.00832800  0.36150750  0.86150750  1
  N  N137  1  0.13899150  0.00501600  0.13899150  1
  N  N138  1  0.36100850  0.49498400  0.13899150  1
  N  N139  1  0.13899150  0.49498400  0.36100850  1
  N  N140  1  0.36100850  0.00501600  0.36100850  1
  N  N141  1  0.36100850  0.36100850  0.00501600  1
  N  N142  1  0.49498400  0.13899150  0.36100850  1
  N  N143  1  0.13899150  0.13899150  0.00501600  1
  N  N144  1  0.00501600  0.13899150  0.13899150  1
  N  N145  1  0.36100850  0.13899150  0.49498400  1
  N  N146  1  0.00501600  0.36100850  0.36100850  1
  N  N147  1  0.13899150  0.36100850  0.49498400  1
  N  N148  1  0.49498400  0.36100850  0.13899150  1
  N  N149  1  0.31973200  0.18026800  0.31973200  1
  N  N150  1  0.18026800  0.31973200  0.31973200  1
  N  N151  1  0.31973200  0.31973200  0.18026800  1
  N  N152  1  0.18026800  0.18026800  0.18026800  1
  N  N153  1  0.31532367  0.81532367  0.18467633  1
  N  N154  1  0.18467633  0.68467633  0.18467633  1
  N  N155  1  0.31532367  0.68467633  0.31532367  1
  N  N156  1  0.18467633  0.81532367  0.31532367  1
  N  N157  1  0.00000000  0.50000000  0.50000000  1
  N  N158  1  0.86150750  0.99167200  0.63849250  1
  N  N159  1  0.63849250  0.50832800  0.63849250  1
  N  N160  1  0.36150750  0.50832800  0.36150750  1
  N  N161  1  0.13849250  0.99167200  0.36150750  1
  N  N162  1  0.36150750  0.63849250  0.49167200  1
  N  N163  1  0.50832800  0.63849250  0.63849250  1
  N  N164  1  0.13849250  0.86150750  0.49167200  1
  N  N165  1  0.49167200  0.63849250  0.36150750  1
  N  N166  1  0.86150750  0.86150750  0.50832800  1
  N  N167  1  0.99167200  0.86150750  0.63849250  1
  N  N168  1  0.63849250  0.63849250  0.50832800  1
  N  N169  1  0.00832800  0.86150750  0.36150750  1
  N  N170  1  0.13899150  0.50501600  0.63899150  1
  N  N171  1  0.36100850  0.99498400  0.63899150  1
  N  N172  1  0.13899150  0.99498400  0.86100850  1
  N  N173  1  0.36100850  0.50501600  0.86100850  1
  N  N174  1  0.36100850  0.86100850  0.50501600  1
  N  N175  1  0.49498400  0.63899150  0.86100850  1
  N  N176  1  0.13899150  0.63899150  0.50501600  1
  N  N177  1  0.00501600  0.63899150  0.63899150  1
  N  N178  1  0.36100850  0.63899150  0.99498400  1
  N  N179  1  0.00501600  0.86100850  0.86100850  1
  N  N180  1  0.13899150  0.86100850  0.99498400  1
  N  N181  1  0.49498400  0.86100850  0.63899150  1
  N  N182  1  0.31973200  0.68026800  0.81973200  1
  N  N183  1  0.18026800  0.81973200  0.81973200  1
  N  N184  1  0.31973200  0.81973200  0.68026800  1
  N  N185  1  0.18026800  0.68026800  0.68026800  1
  N  N186  1  0.81532367  0.31532367  0.18467633  1
  N  N187  1  0.68467633  0.18467633  0.18467633  1
  N  N188  1  0.81532367  0.18467633  0.31532367  1
  N  N189  1  0.68467633  0.31532367  0.31532367  1
  N  N190  1  0.50000000  0.00000000  0.50000000  1
  N  N191  1  0.36150750  0.49167200  0.63849250  1
  N  N192  1  0.13849250  0.00832800  0.63849250  1
  N  N193  1  0.86150750  0.00832800  0.36150750  1
  N  N194  1  0.63849250  0.49167200  0.36150750  1
  N  N195  1  0.86150750  0.13849250  0.49167200  1
  N  N196  1  0.00832800  0.13849250  0.63849250  1
  N  N197  1  0.63849250  0.36150750  0.49167200  1
  N  N198  1  0.99167200  0.13849250  0.36150750  1
  N  N199  1  0.36150750  0.36150750  0.50832800  1
  N  N200  1  0.49167200  0.36150750  0.63849250  1
  N  N201  1  0.13849250  0.13849250  0.50832800  1
  N  N202  1  0.50832800  0.36150750  0.36150750  1
  N  N203  1  0.63899150  0.00501600  0.63899150  1
  N  N204  1  0.86100850  0.49498400  0.63899150  1
  N  N205  1  0.63899150  0.49498400  0.86100850  1
  N  N206  1  0.86100850  0.00501600  0.86100850  1
  N  N207  1  0.86100850  0.36100850  0.50501600  1
  N  N208  1  0.99498400  0.13899150  0.86100850  1
  N  N209  1  0.63899150  0.13899150  0.50501600  1
  N  N210  1  0.50501600  0.13899150  0.63899150  1
  N  N211  1  0.86100850  0.13899150  0.99498400  1
  N  N212  1  0.50501600  0.36100850  0.86100850  1
  N  N213  1  0.63899150  0.36100850  0.99498400  1
  N  N214  1  0.99498400  0.36100850  0.63899150  1
  N  N215  1  0.81973200  0.18026800  0.81973200  1
  N  N216  1  0.68026800  0.31973200  0.81973200  1
  N  N217  1  0.81973200  0.31973200  0.68026800  1
  N  N218  1  0.68026800  0.18026800  0.68026800  1
  N  N219  1  0.81532367  0.81532367  0.68467633  1
  N  N220  1  0.68467633  0.68467633  0.68467633  1
  N  N221  1  0.81532367  0.68467633  0.81532367  1
  N  N222  1  0.68467633  0.81532367  0.81532367  1
  N  N223  1  0.50000000  0.50000000  0.00000000  1
  N  N224  1  0.36150750  0.99167200  0.13849250  1
  N  N225  1  0.13849250  0.50832800  0.13849250  1
  N  N226  1  0.86150750  0.50832800  0.86150750  1
  N  N227  1  0.63849250  0.99167200  0.86150750  1
  N  N228  1  0.86150750  0.63849250  0.99167200  1
  N  N229  1  0.00832800  0.63849250  0.13849250  1
  N  N230  1  0.63849250  0.86150750  0.99167200  1
  N  N231  1  0.99167200  0.63849250  0.86150750  1
  N  N232  1  0.36150750  0.86150750  0.00832800  1
  N  N233  1  0.49167200  0.86150750  0.13849250  1
  N  N234  1  0.13849250  0.63849250  0.00832800  1
  N  N235  1  0.50832800  0.86150750  0.86150750  1
  N  N236  1  0.63899150  0.50501600  0.13899150  1
  N  N237  1  0.86100850  0.99498400  0.13899150  1
  N  N238  1  0.63899150  0.99498400  0.36100850  1
  N  N239  1  0.86100850  0.50501600  0.36100850  1
  N  N240  1  0.86100850  0.86100850  0.00501600  1
  N  N241  1  0.99498400  0.63899150  0.36100850  1
  N  N242  1  0.63899150  0.63899150  0.00501600  1
  N  N243  1  0.50501600  0.63899150  0.13899150  1
  N  N244  1  0.86100850  0.63899150  0.49498400  1
  N  N245  1  0.50501600  0.86100850  0.36100850  1
  N  N246  1  0.63899150  0.86100850  0.49498400  1
  N  N247  1  0.99498400  0.86100850  0.13899150  1
  N  N248  1  0.81973200  0.68026800  0.31973200  1
  N  N249  1  0.68026800  0.81973200  0.31973200  1
  N  N250  1  0.81973200  0.81973200  0.18026800  1
  N  N251  1  0.68026800  0.68026800  0.18026800  1
