# generated using pymatgen
data_Li5Fe5(CoO6)2
_symmetry_space_group_name_H-M   'P 1'
_cell_length_a   5.20652600
_cell_length_b   8.94779200
_cell_length_c   9.87180400
_cell_angle_alpha   90.00000000
_cell_angle_beta   100.05231052
_cell_angle_gamma   90.00000000
_symmetry_Int_Tables_number   1
_chemical_formula_structural   Li5Fe5(CoO6)2
_chemical_formula_sum   'Li10 Fe10 Co4 O24'
_cell_volume   452.83689423
_cell_formula_units_Z   2
loop_
 _symmetry_equiv_pos_site_id
 _symmetry_equiv_pos_as_xyz
  1  'x, y, z'
loop_
 _atom_site_type_symbol
 _atom_site_label
 _atom_site_symmetry_multiplicity
 _atom_site_fract_x
 _atom_site_fract_y
 _atom_site_fract_z
 _atom_site_occupancy
  Li  Li0  1  0.25213850  0.91514450  0.25772700  1
  Li  Li1  1  0.24004050  0.08306850  0.74075200  1
  Li  Li2  1  0.74786150  0.91514450  0.74227300  1
  Li  Li3  1  0.75995950  0.08306850  0.25924800  1
  Li  Li4  1  0.50000000  0.41922900  0.50000000  1
  Li  Li5  1  0.75213850  0.41514450  0.25772700  1
  Li  Li6  1  0.74004050  0.58306850  0.74075200  1
  Li  Li7  1  0.24786150  0.41514450  0.74227300  1
  Li  Li8  1  0.25995950  0.58306850  0.25924800  1
  Li  Li9  1  0.00000000  0.91922900  0.50000000  1
  Fe  Fe10  1  0.50000000  0.58363500  0.00000000  1
  Fe  Fe11  1  0.74274800  0.25464300  0.73576200  1
  Fe  Fe12  1  0.25725200  0.25464300  0.26423800  1
  Fe  Fe13  1  0.50000000  0.92066900  0.00000000  1
  Fe  Fe14  1  0.50000000  0.07541400  0.50000000  1
  Fe  Fe15  1  0.00000000  0.08363500  0.00000000  1
  Fe  Fe16  1  0.24274800  0.75464300  0.73576200  1
  Fe  Fe17  1  0.75725200  0.75464300  0.26423800  1
  Fe  Fe18  1  0.00000000  0.42066900  0.00000000  1
  Fe  Fe19  1  0.00000000  0.57541400  0.50000000  1
  Co  Co20  1  0.50000000  0.74869900  0.50000000  1
  Co  Co21  1  0.50000000  0.25116400  0.00000000  1
  Co  Co22  1  0.00000000  0.24869900  0.50000000  1
  Co  Co23  1  0.00000000  0.75116400  0.00000000  1
  O  O24  1  0.85562450  0.08952250  0.62524400  1
  O  O25  1  0.14437550  0.08952250  0.37475600  1
  O  O26  1  0.40080100  0.75175800  0.12191500  1
  O  O27  1  0.59919900  0.75175800  0.87808500  1
  O  O28  1  0.37335600  0.91406800  0.62417200  1
  O  O29  1  0.62664400  0.91406800  0.37582800  1
  O  O30  1  0.36186700  0.08453600  0.11594200  1
  O  O31  1  0.63813300  0.08453600  0.88405800  1
  O  O32  1  0.38836250  0.24034250  0.62678200  1
  O  O33  1  0.61163750  0.24034250  0.37321800  1
  O  O34  1  0.86442800  0.91751100  0.11909200  1
  O  O35  1  0.13557200  0.91751100  0.88090800  1
  O  O36  1  0.35562450  0.58952250  0.62524400  1
  O  O37  1  0.64437550  0.58952250  0.37475600  1
  O  O38  1  0.90080100  0.25175800  0.12191500  1
  O  O39  1  0.09919900  0.25175800  0.87808500  1
  O  O40  1  0.87335600  0.41406800  0.62417200  1
  O  O41  1  0.12664400  0.41406800  0.37582800  1
  O  O42  1  0.86186700  0.58453600  0.11594200  1
  O  O43  1  0.13813300  0.58453600  0.88405800  1
  O  O44  1  0.88836250  0.74034250  0.62678200  1
  O  O45  1  0.11163750  0.74034250  0.37321800  1
  O  O46  1  0.36442800  0.41751100  0.11909200  1
  O  O47  1  0.63557200  0.41751100  0.88090800  1
