# generated using pymatgen
data_CuH6BrN2
_symmetry_space_group_name_H-M   'P 1'
_cell_length_a   6.67585400
_cell_length_b   12.87165000
_cell_length_c   5.80565712
_cell_angle_alpha   90.00000000
_cell_angle_beta   114.62516732
_cell_angle_gamma   90.00000000
_symmetry_Int_Tables_number   1
_chemical_formula_structural   CuH6BrN2
_chemical_formula_sum   'Cu4 H24 Br4 N8'
_cell_volume   453.50462459
_cell_formula_units_Z   4
loop_
 _symmetry_equiv_pos_site_id
 _symmetry_equiv_pos_as_xyz
  1  'x, y, z'
loop_
 _atom_site_type_symbol
 _atom_site_label
 _atom_site_symmetry_multiplicity
 _atom_site_fract_x
 _atom_site_fract_y
 _atom_site_fract_z
 _atom_site_occupancy
  Cu  Cu0  1  0.00000000  0.00000000  0.50000000  1
  Cu  Cu1  1  0.00000000  0.00000000  0.00000000  1
  Cu  Cu2  1  0.50000000  0.50000000  0.50000000  1
  Cu  Cu3  1  0.50000000  0.50000000  0.00000000  1
  H  H4  1  0.20438650  0.61557150  0.71291700  1
  H  H5  1  0.79561350  0.61557150  0.78708300  1
  H  H6  1  0.22658750  0.62832350  0.00828500  1
  H  H7  1  0.77341250  0.62832350  0.49171500  1
  H  H8  1  0.59966900  0.68865300  0.58752700  1
  H  H9  1  0.40033100  0.68865300  0.91247300  1
  H  H10  1  0.09966900  0.81134700  0.08752700  1
  H  H11  1  0.90033100  0.81134700  0.41247300  1
  H  H12  1  0.72658750  0.87167650  0.50828500  1
  H  H13  1  0.27341250  0.87167650  0.99171500  1
  H  H14  1  0.70438650  0.88442850  0.21291700  1
  H  H15  1  0.29561350  0.88442850  0.28708300  1
  H  H16  1  0.70438650  0.11557150  0.71291700  1
  H  H17  1  0.29561350  0.11557150  0.78708300  1
  H  H18  1  0.72658750  0.12832350  0.00828500  1
  H  H19  1  0.27341250  0.12832350  0.49171500  1
  H  H20  1  0.09966900  0.18865300  0.58752700  1
  H  H21  1  0.90033100  0.18865300  0.91247300  1
  H  H22  1  0.59966900  0.31134700  0.08752700  1
  H  H23  1  0.40033100  0.31134700  0.41247300  1
  H  H24  1  0.22658750  0.37167650  0.50828500  1
  H  H25  1  0.77341250  0.37167650  0.99171500  1
  H  H26  1  0.20438650  0.38442850  0.21291700  1
  H  H27  1  0.79561350  0.38442850  0.28708300  1
  Br  Br28  1  0.00000000  0.63664000  0.25000000  1
  Br  Br29  1  0.50000000  0.86336000  0.75000000  1
  Br  Br30  1  0.50000000  0.13664000  0.25000000  1
  Br  Br31  1  0.00000000  0.36336000  0.75000000  1
  N  N32  1  0.31566250  0.62049750  0.90013300  1
  N  N33  1  0.68433750  0.62049750  0.59986700  1
  N  N34  1  0.81566250  0.87950250  0.40013300  1
  N  N35  1  0.18433750  0.87950250  0.09986700  1
  N  N36  1  0.81566250  0.12049750  0.90013300  1
  N  N37  1  0.18433750  0.12049750  0.59986700  1
  N  N38  1  0.31566250  0.37950250  0.40013300  1
  N  N39  1  0.68433750  0.37950250  0.09986700  1
