# generated using pymatgen
data_BaZrF6
_symmetry_space_group_name_H-M   'P 1'
_cell_length_a   7.78236600
_cell_length_b   11.53718800
_cell_length_c   5.61354300
_cell_angle_alpha   90.00000000
_cell_angle_beta   90.00000000
_cell_angle_gamma   90.00000000
_symmetry_Int_Tables_number   1
_chemical_formula_structural   BaZrF6
_chemical_formula_sum   'Ba4 Zr4 F24'
_cell_volume   504.02105010
_cell_formula_units_Z   4
loop_
 _symmetry_equiv_pos_site_id
 _symmetry_equiv_pos_as_xyz
  1  'x, y, z'
loop_
 _atom_site_type_symbol
 _atom_site_label
 _atom_site_symmetry_multiplicity
 _atom_site_fract_x
 _atom_site_fract_y
 _atom_site_fract_z
 _atom_site_occupancy
  Ba  Ba0  1  0.50000000  0.25000000  0.55559800  1
  Ba  Ba1  1  0.50000000  0.75000000  0.44440200  1
  Ba  Ba2  1  0.00000000  0.75000000  0.55559800  1
  Ba  Ba3  1  0.00000000  0.25000000  0.44440200  1
  Zr  Zr4  1  0.75000000  0.00000000  0.00000000  1
  Zr  Zr5  1  0.25000000  0.00000000  0.00000000  1
  Zr  Zr6  1  0.25000000  0.50000000  0.00000000  1
  Zr  Zr7  1  0.75000000  0.50000000  0.00000000  1
  F  F8  1  0.30663350  0.12530650  0.25046600  1
  F  F9  1  0.19336650  0.87469350  0.25046600  1
  F  F10  1  0.30663350  0.87469350  0.74953400  1
  F  F11  1  0.19336650  0.12530650  0.74953400  1
  F  F12  1  0.50000000  0.92989700  0.14993000  1
  F  F13  1  0.50000000  0.57010300  0.14993000  1
  F  F14  1  0.50000000  0.07010300  0.85007000  1
  F  F15  1  0.50000000  0.42989700  0.85007000  1
  F  F16  1  0.80663350  0.87469350  0.25046600  1
  F  F17  1  0.69336650  0.12530650  0.25046600  1
  F  F18  1  0.80663350  0.12530650  0.74953400  1
  F  F19  1  0.69336650  0.87469350  0.74953400  1
  F  F20  1  0.80663350  0.62530650  0.25046600  1
  F  F21  1  0.69336650  0.37469350  0.25046600  1
  F  F22  1  0.80663350  0.37469350  0.74953400  1
  F  F23  1  0.69336650  0.62530650  0.74953400  1
  F  F24  1  0.00000000  0.42989700  0.14993000  1
  F  F25  1  0.00000000  0.07010300  0.14993000  1
  F  F26  1  0.00000000  0.57010300  0.85007000  1
  F  F27  1  0.00000000  0.92989700  0.85007000  1
  F  F28  1  0.30663350  0.37469350  0.25046600  1
  F  F29  1  0.19336650  0.62530650  0.25046600  1
  F  F30  1  0.30663350  0.62530650  0.74953400  1
  F  F31  1  0.19336650  0.37469350  0.74953400  1
