# generated using pymatgen
data_FeP6(WO8)3
_symmetry_space_group_name_H-M   'P 1'
_cell_length_a   8.77206019
_cell_length_b   8.77206019
_cell_length_c   22.00096484
_cell_angle_alpha   90.00000000
_cell_angle_beta   90.00000000
_cell_angle_gamma   120.00000000
_symmetry_Int_Tables_number   1
_chemical_formula_structural   FeP6(WO8)3
_chemical_formula_sum   'Fe3 P18 W9 O72'
_cell_volume   1466.14041174
_cell_formula_units_Z   3
loop_
 _symmetry_equiv_pos_site_id
 _symmetry_equiv_pos_as_xyz
  1  'x, y, z'
loop_
 _atom_site_type_symbol
 _atom_site_label
 _atom_site_symmetry_multiplicity
 _atom_site_fract_x
 _atom_site_fract_y
 _atom_site_fract_z
 _atom_site_occupancy
  Fe  Fe0  1  0.00000000  0.00000000  0.14172000  1
  Fe  Fe1  1  0.66666667  0.33333333  0.47505333  1
  Fe  Fe2  1  0.33333333  0.66666667  0.80838667  1
  P  P3  1  0.00028067  0.28361433  0.24869133  1
  P  P4  1  0.71638567  0.71666633  0.24869133  1
  P  P5  1  0.28333367  0.99971933  0.24869133  1
  P  P6  1  0.37555500  0.32898700  0.08351900  1
  P  P7  1  0.95343200  0.62444500  0.08351900  1
  P  P8  1  0.67101300  0.04656800  0.08351900  1
  P  P9  1  0.66694733  0.61694767  0.58202467  1
  P  P10  1  0.38305233  0.04999967  0.58202467  1
  P  P11  1  0.95000033  0.33305267  0.58202467  1
  P  P12  1  0.04222167  0.66232033  0.41685233  1
  P  P13  1  0.62009867  0.95777833  0.41685233  1
  P  P14  1  0.33767967  0.37990133  0.41685233  1
  P  P15  1  0.33361400  0.95028100  0.91535800  1
  P  P16  1  0.04971900  0.38333300  0.91535800  1
  P  P17  1  0.61666700  0.66638600  0.91535800  1
  P  P18  1  0.70888833  0.99565367  0.75018567  1
  P  P19  1  0.28676533  0.29111167  0.75018567  1
  P  P20  1  0.00434633  0.71323467  0.75018567  1
  W  W21  1  0.66666667  0.33333333  0.19103533  1
  W  W22  1  0.33333333  0.66666667  0.30944067  1
  W  W23  1  0.33333333  0.66666667  0.02451867  1
  W  W24  1  0.33333333  0.66666667  0.52436867  1
  W  W25  1  0.00000000  0.00000000  0.64277400  1
  W  W26  1  0.00000000  0.00000000  0.35785200  1
  W  W27  1  0.00000000  0.00000000  0.85770200  1
  W  W28  1  0.66666667  0.33333333  0.97610733  1
  W  W29  1  0.66666667  0.33333333  0.69118533  1
  O  O30  1  0.68818233  0.15805567  0.02624267  1
  O  O31  1  0.46987333  0.31181767  0.02624267  1
  O  O32  1  0.83581400  0.30646400  0.24375800  1
  O  O33  1  0.84194433  0.53012667  0.02624267  1
  O  O34  1  0.16128833  0.47069467  0.25803267  1
  O  O35  1  0.03026400  0.20255600  0.19311600  1
  O  O36  1  0.69353600  0.52935000  0.24375800  1
  O  O37  1  0.52930533  0.69059367  0.25803267  1
  O  O38  1  0.30940633  0.83871167  0.25803267  1
  O  O39  1  0.49458300  0.36197700  0.14028900  1
  O  O40  1  0.19732933  0.16782067  0.08867067  1
  O  O41  1  0.86739400  0.50541700  0.14028900  1
  O  O42  1  0.79744400  0.82770800  0.19311600  1
  O  O43  1  0.47065000  0.16418600  0.24375800  1
  O  O44  1  0.17229200  0.96973600  0.19311600  1
  O  O45  1  0.36440533  0.49954267  0.07649367  1
  O  O46  1  0.13513733  0.63559467  0.07649367  1
  O  O47  1  0.97049133  0.80267067  0.08867067  1
  O  O48  1  0.63802300  0.13260600  0.14028900  1
  O  O49  1  0.50045733  0.86486267  0.07649367  1
  O  O50  1  0.82547667  0.79784233  0.30783833  1
  O  O51  1  0.83217933  0.02950867  0.08867067  1
  O  O52  1  0.20215767  0.02763433  0.30783833  1
  O  O53  1  0.97236567  0.17452333  0.30783833  1
  O  O54  1  0.35484900  0.49138900  0.35957600  1
  O  O55  1  0.13654000  0.64515100  0.35957600  1
  O  O56  1  0.50248067  0.63979733  0.57709133  1
  O  O57  1  0.50861100  0.86346000  0.35957600  1
  O  O58  1  0.82795500  0.80402800  0.59136600  1
  O  O59  1  0.69693067  0.53588933  0.52644933  1
  O  O60  1  0.36020267  0.86268333  0.57709133  1
  O  O61  1  0.19597200  0.02392700  0.59136600  1
  O  O62  1  0.97607300  0.17204500  0.59136600  1
  O  O63  1  0.16124967  0.69531033  0.47362233  1
  O  O64  1  0.86399600  0.50115400  0.42200400  1
  O  O65  1  0.53406067  0.83875033  0.47362233  1
  O  O66  1  0.46411067  0.16104133  0.52644933  1
  O  O67  1  0.13731667  0.49751933  0.57709133  1
  O  O68  1  0.83895867  0.30306933  0.52644933  1
  O  O69  1  0.03107200  0.83287600  0.40982700  1
  O  O70  1  0.80180400  0.96892800  0.40982700  1
  O  O71  1  0.63715800  0.13600400  0.42200400  1
  O  O72  1  0.30468967  0.46593933  0.47362233  1
  O  O73  1  0.16712400  0.19819600  0.40982700  1
  O  O74  1  0.49214333  0.13117567  0.64117167  1
  O  O75  1  0.49884600  0.36284200  0.42200400  1
  O  O76  1  0.86882433  0.36096767  0.64117167  1
  O  O77  1  0.63903233  0.50785667  0.64117167  1
  O  O78  1  0.02151567  0.82472233  0.69290933  1
  O  O79  1  0.80320667  0.97848433  0.69290933  1
  O  O80  1  0.16914733  0.97313067  0.91042467  1
  O  O81  1  0.17527767  0.19679333  0.69290933  1
  O  O82  1  0.49462167  0.13736133  0.92469933  1
  O  O83  1  0.36359733  0.86922267  0.85978267  1
  O  O84  1  0.02686933  0.19601667  0.91042467  1
  O  O85  1  0.86263867  0.35726033  0.92469933  1
  O  O86  1  0.64273967  0.50537833  0.92469933  1
  O  O87  1  0.82791633  0.02864367  0.80695567  1
  O  O88  1  0.53066267  0.83448733  0.75533733  1
  O  O89  1  0.20072733  0.17208367  0.80695567  1
  O  O90  1  0.13077733  0.49437467  0.85978267  1
  O  O91  1  0.80398333  0.83085267  0.91042467  1
  O  O92  1  0.50562533  0.63640267  0.85978267  1
  O  O93  1  0.69773867  0.16620933  0.74316033  1
  O  O94  1  0.46847067  0.30226133  0.74316033  1
  O  O95  1  0.30382467  0.46933733  0.75533733  1
  O  O96  1  0.97135633  0.79927267  0.80695567  1
  O  O97  1  0.83379067  0.53152933  0.74316033  1
  O  O98  1  0.15881000  0.46450900  0.97450500  1
  O  O99  1  0.16551267  0.69617533  0.75533733  1
  O  O100  1  0.53549100  0.69430100  0.97450500  1
  O  O101  1  0.30569900  0.84119000  0.97450500  1
