# generated using pymatgen
data_NaMgSO4F
_symmetry_space_group_name_H-M   'P 1'
_cell_length_a   6.77262600
_cell_length_b   8.64293800
_cell_length_c   7.18657793
_cell_angle_alpha   90.00000000
_cell_angle_beta   113.93673891
_cell_angle_gamma   90.00000000
_symmetry_Int_Tables_number   1
_chemical_formula_structural   NaMgSO4F
_chemical_formula_sum   'Na4 Mg4 S4 O16 F4'
_cell_volume   384.48904309
_cell_formula_units_Z   4
loop_
 _symmetry_equiv_pos_site_id
 _symmetry_equiv_pos_as_xyz
  1  'x, y, z'
loop_
 _atom_site_type_symbol
 _atom_site_label
 _atom_site_symmetry_multiplicity
 _atom_site_fract_x
 _atom_site_fract_y
 _atom_site_fract_z
 _atom_site_occupancy
  Na  Na0  1  0.50000000  0.16924900  0.75000000  1
  Na  Na1  1  0.50000000  0.83075100  0.25000000  1
  Na  Na2  1  0.00000000  0.66924900  0.75000000  1
  Na  Na3  1  0.00000000  0.33075100  0.25000000  1
  Mg  Mg4  1  0.00000000  0.00000000  0.00000000  1
  Mg  Mg5  1  0.00000000  0.00000000  0.50000000  1
  Mg  Mg6  1  0.50000000  0.50000000  0.00000000  1
  Mg  Mg7  1  0.50000000  0.50000000  0.50000000  1
  S  S8  1  0.50000000  0.82155700  0.75000000  1
  S  S9  1  0.50000000  0.17844300  0.25000000  1
  S  S10  1  0.00000000  0.32155700  0.75000000  1
  S  S11  1  0.00000000  0.67844300  0.25000000  1
  O  O12  1  0.40572600  0.72264700  0.86408600  1
  O  O13  1  0.59427400  0.72264700  0.63591400  1
  O  O14  1  0.59427400  0.27735300  0.13591400  1
  O  O15  1  0.40572600  0.27735300  0.36408600  1
  O  O16  1  0.66930550  0.92390750  0.89561500  1
  O  O17  1  0.33069450  0.92390750  0.60438500  1
  O  O18  1  0.33069450  0.07609250  0.10438500  1
  O  O19  1  0.66930550  0.07609250  0.39561500  1
  O  O20  1  0.90572600  0.22264700  0.86408600  1
  O  O21  1  0.09427400  0.22264700  0.63591400  1
  O  O22  1  0.09427400  0.77735300  0.13591400  1
  O  O23  1  0.90572600  0.77735300  0.36408600  1
  O  O24  1  0.16930550  0.42390750  0.89561500  1
  O  O25  1  0.83069450  0.42390750  0.60438500  1
  O  O26  1  0.83069450  0.57609250  0.10438500  1
  O  O27  1  0.16930550  0.57609250  0.39561500  1
  F  F28  1  0.50000000  0.42217500  0.75000000  1
  F  F29  1  0.50000000  0.57782500  0.25000000  1
  F  F30  1  0.00000000  0.92217500  0.75000000  1
  F  F31  1  0.00000000  0.07782500  0.25000000  1
