# generated using pymatgen
data_H28RuS2(N3O5)2
_symmetry_space_group_name_H-M   'P 1'
_cell_length_a   6.33261500
_cell_length_b   10.05346200
_cell_length_c   12.63794785
_cell_angle_alpha   90.00000000
_cell_angle_beta   95.52799039
_cell_angle_gamma   90.00000000
_symmetry_Int_Tables_number   1
_chemical_formula_structural   H28RuS2(N3O5)2
_chemical_formula_sum   'H56 Ru2 S4 N12 O20'
_cell_volume   800.84926526
_cell_formula_units_Z   2
loop_
 _symmetry_equiv_pos_site_id
 _symmetry_equiv_pos_as_xyz
  1  'x, y, z'
loop_
 _atom_site_type_symbol
 _atom_site_label
 _atom_site_symmetry_multiplicity
 _atom_site_fract_x
 _atom_site_fract_y
 _atom_site_fract_z
 _atom_site_occupancy
  H  H0  1  0.83551900  0.37667700  0.66750600  1
  H  H1  1  0.83551900  0.12332300  0.16750600  1
  H  H2  1  0.16448100  0.62332300  0.33249400  1
  H  H3  1  0.16448100  0.87667700  0.83249400  1
  H  H4  1  0.68092200  0.50284200  0.62803400  1
  H  H5  1  0.68092200  0.99715800  0.12803400  1
  H  H6  1  0.31907800  0.49715800  0.37196600  1
  H  H7  1  0.31907800  0.00284200  0.87196600  1
  H  H8  1  0.90397400  0.52879800  0.70174700  1
  H  H9  1  0.90397400  0.97120200  0.20174700  1
  H  H10  1  0.09602600  0.47120200  0.29825300  1
  H  H11  1  0.09602600  0.02879800  0.79825300  1
  H  H12  1  0.62045700  0.62307500  0.47733700  1
  H  H13  1  0.62045700  0.87692500  0.97733700  1
  H  H14  1  0.37954300  0.37692500  0.52266300  1
  H  H15  1  0.37954300  0.12307500  0.02266300  1
  H  H16  1  0.71646800  0.62154100  0.35825900  1
  H  H17  1  0.71646800  0.87845900  0.85825900  1
  H  H18  1  0.28353200  0.37845900  0.64174100  1
  H  H19  1  0.28353200  0.12154100  0.14174100  1
  H  H20  1  0.80437700  0.72899900  0.44961000  1
  H  H21  1  0.80437700  0.77100100  0.94961000  1
  H  H22  1  0.19562300  0.27100100  0.55039000  1
  H  H23  1  0.19562300  0.22899900  0.05039000  1
  H  H24  1  0.15038000  0.96547100  0.58866900  1
  H  H25  1  0.15038000  0.53452900  0.08866900  1
  H  H26  1  0.84962000  0.03452900  0.41133100  1
  H  H27  1  0.84962000  0.46547100  0.91133100  1
  H  H28  1  0.04727300  0.10862000  0.57647700  1
  H  H29  1  0.04727300  0.39138000  0.07647700  1
  H  H30  1  0.95272700  0.89138000  0.42352300  1
  H  H31  1  0.95272700  0.60862000  0.92352300  1
  H  H32  1  0.39031900  0.23251800  0.34219500  1
  H  H33  1  0.39031900  0.26748200  0.84219500  1
  H  H34  1  0.60968100  0.76748200  0.65780500  1
  H  H35  1  0.60968100  0.73251800  0.15780500  1
  H  H36  1  0.14171900  0.20851500  0.31474300  1
  H  H37  1  0.14171900  0.29148500  0.81474300  1
  H  H38  1  0.85828100  0.79148500  0.68525700  1
  H  H39  1  0.85828100  0.70851500  0.18525700  1
  H  H40  1  0.56639000  0.90280600  0.35992800  1
  H  H41  1  0.56639000  0.59719400  0.85992800  1
  H  H42  1  0.43361000  0.09719400  0.64007200  1
  H  H43  1  0.43361000  0.40280600  0.14007200  1
  H  H44  1  0.35122000  0.00402300  0.34627400  1
  H  H45  1  0.35122000  0.49597700  0.84627400  1
  H  H46  1  0.64878000  0.99597700  0.65372600  1
  H  H47  1  0.64878000  0.50402300  0.15372600  1
  H  H48  1  0.33969700  0.86062000  0.41891900  1
  H  H49  1  0.33969700  0.63938000  0.91891900  1
  H  H50  1  0.66030300  0.13938000  0.58108100  1
  H  H51  1  0.66030300  0.36062000  0.08108100  1
  H  H52  1  0.33444200  0.85509200  0.28506600  1
  H  H53  1  0.33444200  0.64490800  0.78506600  1
  H  H54  1  0.66555800  0.14490800  0.71493400  1
  H  H55  1  0.66555800  0.35509200  0.21493400  1
  Ru  Ru56  1  0.00000000  0.50000000  0.50000000  1
  Ru  Ru57  1  0.00000000  0.00000000  0.00000000  1
  S  S58  1  0.81188900  0.32331100  0.42180000  1
  S  S59  1  0.81188900  0.17668900  0.92180000  1
  S  S60  1  0.18811100  0.67668900  0.57820000  1
  S  S61  1  0.18811100  0.82331100  0.07820000  1
  N  N62  1  0.83661200  0.47219800  0.63978600  1
  N  N63  1  0.83661200  0.02780200  0.13978600  1
  N  N64  1  0.16338800  0.52780200  0.36021400  1
  N  N65  1  0.16338800  0.97219800  0.86021400  1
  N  N66  1  0.75515200  0.63283200  0.43834000  1
  N  N67  1  0.75515200  0.86716800  0.93834000  1
  N  N68  1  0.24484800  0.36716800  0.56166000  1
  N  N69  1  0.24484800  0.13283200  0.06166000  1
  N  N70  1  0.40079000  0.90428800  0.35291400  1
  N  N71  1  0.40079000  0.59571200  0.85291400  1
  N  N72  1  0.59921000  0.09571200  0.64708600  1
  N  N73  1  0.59921000  0.40428800  0.14708600  1
  O  O74  1  0.88212900  0.28425300  0.31343400  1
  O  O75  1  0.88212900  0.21574700  0.81343400  1
  O  O76  1  0.11787100  0.71574700  0.68656600  1
  O  O77  1  0.11787100  0.78425300  0.18656600  1
  O  O78  1  0.57404900  0.35120900  0.40330500  1
  O  O79  1  0.57404900  0.14879100  0.90330500  1
  O  O80  1  0.42595100  0.64879100  0.59669500  1
  O  O81  1  0.42595100  0.85120900  0.09669500  1
  O  O82  1  0.83540300  0.19489300  0.49009500  1
  O  O83  1  0.83540300  0.30510700  0.99009500  1
  O  O84  1  0.16459700  0.80510700  0.50990500  1
  O  O85  1  0.16459700  0.69489300  0.00990500  1
  O  O86  1  0.15590900  0.05657200  0.61951600  1
  O  O87  1  0.15590900  0.44342800  0.11951600  1
  O  O88  1  0.84409100  0.94342800  0.38048400  1
  O  O89  1  0.84409100  0.55657200  0.88048400  1
  O  O90  1  0.28354600  0.16791400  0.30989600  1
  O  O91  1  0.28354600  0.33208600  0.80989600  1
  O  O92  1  0.71645400  0.83208600  0.69010400  1
  O  O93  1  0.71645400  0.66791400  0.19010400  1
