# generated using pymatgen
data_AlTlSe2
_symmetry_space_group_name_H-M   'P 1'
_cell_length_a   10.95334200
_cell_length_b   10.95918600
_cell_length_c   15.85404534
_cell_angle_alpha   90.00000000
_cell_angle_beta   100.01779458
_cell_angle_gamma   90.00000000
_symmetry_Int_Tables_number   1
_chemical_formula_structural   AlTlSe2
_chemical_formula_sum   'Al16 Tl16 Se32'
_cell_volume   1874.09972157
_cell_formula_units_Z   16
loop_
 _symmetry_equiv_pos_site_id
 _symmetry_equiv_pos_as_xyz
  1  'x, y, z'
loop_
 _atom_site_type_symbol
 _atom_site_label
 _atom_site_symmetry_multiplicity
 _atom_site_fract_x
 _atom_site_fract_y
 _atom_site_fract_z
 _atom_site_occupancy
  Al  Al0  1  0.35533100  0.93509600  0.16019900  1
  Al  Al1  1  0.64466900  0.93509600  0.33980100  1
  Al  Al2  1  0.64466900  0.06490400  0.83980100  1
  Al  Al3  1  0.35533100  0.06490400  0.66019900  1
  Al  Al4  1  0.39898350  0.68943550  0.33862000  1
  Al  Al5  1  0.60101650  0.68943550  0.16138000  1
  Al  Al6  1  0.60101650  0.31056450  0.66138000  1
  Al  Al7  1  0.39898350  0.31056450  0.83862000  1
  Al  Al8  1  0.85533100  0.43509600  0.16019900  1
  Al  Al9  1  0.14466900  0.43509600  0.33980100  1
  Al  Al10  1  0.14466900  0.56490400  0.83980100  1
  Al  Al11  1  0.85533100  0.56490400  0.66019900  1
  Al  Al12  1  0.89898350  0.18943550  0.33862000  1
  Al  Al13  1  0.10101650  0.18943550  0.16138000  1
  Al  Al14  1  0.10101650  0.81056450  0.66138000  1
  Al  Al15  1  0.89898350  0.81056450  0.83862000  1
  Tl  Tl16  1  0.71716250  0.06220550  0.11966700  1
  Tl  Tl17  1  0.28283750  0.06220550  0.38033300  1
  Tl  Tl18  1  0.28283750  0.93779450  0.88033300  1
  Tl  Tl19  1  0.71716250  0.93779450  0.61966700  1
  Tl  Tl20  1  0.53752050  0.31239950  0.38897000  1
  Tl  Tl21  1  0.46247950  0.31239950  0.11103000  1
  Tl  Tl22  1  0.46247950  0.68760050  0.61103000  1
  Tl  Tl23  1  0.53752050  0.68760050  0.88897000  1
  Tl  Tl24  1  0.21716250  0.56220550  0.11966700  1
  Tl  Tl25  1  0.78283750  0.56220550  0.38033300  1
  Tl  Tl26  1  0.78283750  0.43779450  0.88033300  1
  Tl  Tl27  1  0.21716250  0.43779450  0.61966700  1
  Tl  Tl28  1  0.03752050  0.81239950  0.38897000  1
  Tl  Tl29  1  0.96247950  0.81239950  0.11103000  1
  Tl  Tl30  1  0.96247950  0.18760050  0.61103000  1
  Tl  Tl31  1  0.03752050  0.18760050  0.88897000  1
  Se  Se32  1  0.45610900  0.81280500  0.06608600  1
  Se  Se33  1  0.54389100  0.81280500  0.43391400  1
  Se  Se34  1  0.54389100  0.18719500  0.93391400  1
  Se  Se35  1  0.45610900  0.18719500  0.56608600  1
  Se  Se36  1  0.24339300  0.81160400  0.24849900  1
  Se  Se37  1  0.75660700  0.81160400  0.25150100  1
  Se  Se38  1  0.75660700  0.18839600  0.75150100  1
  Se  Se39  1  0.24339300  0.18839600  0.74849900  1
  Se  Se40  1  0.50000000  0.06829300  0.25000000  1
  Se  Se41  1  0.50000000  0.93170700  0.75000000  1
  Se  Se42  1  0.50000000  0.55544000  0.25000000  1
  Se  Se43  1  0.50000000  0.44456000  0.75000000  1
  Se  Se44  1  0.79416150  0.06336850  0.42925600  1
  Se  Se45  1  0.20583850  0.06336850  0.07074400  1
  Se  Se46  1  0.20583850  0.93663150  0.57074400  1
  Se  Se47  1  0.79416150  0.93663150  0.92925600  1
  Se  Se48  1  0.95610900  0.31280500  0.06608600  1
  Se  Se49  1  0.04389100  0.31280500  0.43391400  1
  Se  Se50  1  0.04389100  0.68719500  0.93391400  1
  Se  Se51  1  0.95610900  0.68719500  0.56608600  1
  Se  Se52  1  0.74339300  0.31160400  0.24849900  1
  Se  Se53  1  0.25660700  0.31160400  0.25150100  1
  Se  Se54  1  0.25660700  0.68839600  0.75150100  1
  Se  Se55  1  0.74339300  0.68839600  0.74849900  1
  Se  Se56  1  0.00000000  0.56829300  0.25000000  1
  Se  Se57  1  0.00000000  0.43170700  0.75000000  1
  Se  Se58  1  0.00000000  0.05544000  0.25000000  1
  Se  Se59  1  0.00000000  0.94456000  0.75000000  1
  Se  Se60  1  0.29416150  0.56336850  0.42925600  1
  Se  Se61  1  0.70583850  0.56336850  0.07074400  1
  Se  Se62  1  0.70583850  0.43663150  0.57074400  1
  Se  Se63  1  0.29416150  0.43663150  0.92925600  1
