# generated using pymatgen
data_Li3Co2OF5
_symmetry_space_group_name_H-M   'P 1'
_cell_length_a   5.99259200
_cell_length_b   8.42390200
_cell_length_c   17.75487800
_cell_angle_alpha   90.00000000
_cell_angle_beta   90.00000000
_cell_angle_gamma   90.00000000
_symmetry_Int_Tables_number   1
_chemical_formula_structural   Li3Co2OF5
_chemical_formula_sum   'Li24 Co16 O8 F40'
_cell_volume   896.28413363
_cell_formula_units_Z   8
loop_
 _symmetry_equiv_pos_site_id
 _symmetry_equiv_pos_as_xyz
  1  'x, y, z'
loop_
 _atom_site_type_symbol
 _atom_site_label
 _atom_site_symmetry_multiplicity
 _atom_site_fract_x
 _atom_site_fract_y
 _atom_site_fract_z
 _atom_site_occupancy
  Li  Li0  1  0.75000000  0.75000000  0.25000000  1
  Li  Li1  1  0.50000000  0.00000000  0.16794900  1
  Li  Li2  1  0.00000000  0.00000000  0.00000000  1
  Li  Li3  1  0.75000000  0.25000000  0.07313300  1
  Li  Li4  1  0.75000000  0.25000000  0.42686700  1
  Li  Li5  1  0.00000000  0.00000000  0.33205100  1
  Li  Li6  1  0.75000000  0.25000000  0.75000000  1
  Li  Li7  1  0.50000000  0.50000000  0.66794900  1
  Li  Li8  1  0.00000000  0.50000000  0.50000000  1
  Li  Li9  1  0.75000000  0.75000000  0.57313300  1
  Li  Li10  1  0.75000000  0.75000000  0.92686700  1
  Li  Li11  1  0.00000000  0.50000000  0.83205100  1
  Li  Li12  1  0.25000000  0.75000000  0.75000000  1
  Li  Li13  1  0.00000000  0.00000000  0.66794900  1
  Li  Li14  1  0.50000000  0.00000000  0.50000000  1
  Li  Li15  1  0.25000000  0.25000000  0.57313300  1
  Li  Li16  1  0.25000000  0.25000000  0.92686700  1
  Li  Li17  1  0.50000000  0.00000000  0.83205100  1
  Li  Li18  1  0.25000000  0.25000000  0.25000000  1
  Li  Li19  1  0.00000000  0.50000000  0.16794900  1
  Li  Li20  1  0.50000000  0.50000000  0.00000000  1
  Li  Li21  1  0.25000000  0.75000000  0.07313300  1
  Li  Li22  1  0.25000000  0.75000000  0.42686700  1
  Li  Li23  1  0.50000000  0.50000000  0.33205100  1
  Co  Co24  1  0.75000000  0.25000000  0.25000000  1
  Co  Co25  1  0.50000000  0.00000000  0.00000000  1
  Co  Co26  1  0.00000000  0.00000000  0.17388100  1
  Co  Co27  1  0.50000000  0.00000000  0.32611900  1
  Co  Co28  1  0.75000000  0.75000000  0.75000000  1
  Co  Co29  1  0.50000000  0.50000000  0.50000000  1
  Co  Co30  1  0.00000000  0.50000000  0.67388100  1
  Co  Co31  1  0.50000000  0.50000000  0.82611900  1
  Co  Co32  1  0.25000000  0.25000000  0.75000000  1
  Co  Co33  1  0.00000000  0.00000000  0.50000000  1
  Co  Co34  1  0.50000000  0.00000000  0.67388100  1
  Co  Co35  1  0.00000000  0.00000000  0.82611900  1
  Co  Co36  1  0.25000000  0.75000000  0.25000000  1
  Co  Co37  1  0.00000000  0.50000000  0.00000000  1
  Co  Co38  1  0.50000000  0.50000000  0.17388100  1
  Co  Co39  1  0.00000000  0.50000000  0.32611900  1
  O  O40  1  0.75000000  0.00979500  0.25000000  1
  O  O41  1  0.75000000  0.49020500  0.25000000  1
  O  O42  1  0.75000000  0.50979500  0.75000000  1
  O  O43  1  0.75000000  0.99020500  0.75000000  1
  O  O44  1  0.25000000  0.00979500  0.75000000  1
  O  O45  1  0.25000000  0.49020500  0.75000000  1
  O  O46  1  0.25000000  0.50979500  0.25000000  1
  O  O47  1  0.25000000  0.99020500  0.25000000  1
  F  F48  1  0.49824100  0.24674750  0.16712650  1
  F  F49  1  0.50000000  0.76454700  0.00000000  1
  F  F50  1  0.24363750  0.98059100  0.08152450  1
  F  F51  1  0.50175900  0.75325250  0.16712650  1
  F  F52  1  0.75636250  0.01940900  0.08152450  1
  F  F53  1  0.50000000  0.23545300  0.00000000  1
  F  F54  1  0.25636250  0.98059100  0.41847550  1
  F  F55  1  0.00175900  0.24674750  0.33287350  1
  F  F56  1  0.74363750  0.01940900  0.41847550  1
  F  F57  1  0.99824100  0.75325250  0.33287350  1
  F  F58  1  0.49824100  0.74674750  0.66712650  1
  F  F59  1  0.50000000  0.26454700  0.50000000  1
  F  F60  1  0.24363750  0.48059100  0.58152450  1
  F  F61  1  0.50175900  0.25325250  0.66712650  1
  F  F62  1  0.75636250  0.51940900  0.58152450  1
  F  F63  1  0.50000000  0.73545300  0.50000000  1
  F  F64  1  0.25636250  0.48059100  0.91847550  1
  F  F65  1  0.00175900  0.74674750  0.83287350  1
  F  F66  1  0.74363750  0.51940900  0.91847550  1
  F  F67  1  0.99824100  0.25325250  0.83287350  1
  F  F68  1  0.99824100  0.24674750  0.66712650  1
  F  F69  1  0.00000000  0.76454700  0.50000000  1
  F  F70  1  0.74363750  0.98059100  0.58152450  1
  F  F71  1  0.00175900  0.75325250  0.66712650  1
  F  F72  1  0.25636250  0.01940900  0.58152450  1
  F  F73  1  0.00000000  0.23545300  0.50000000  1
  F  F74  1  0.75636250  0.98059100  0.91847550  1
  F  F75  1  0.50175900  0.24674750  0.83287350  1
  F  F76  1  0.24363750  0.01940900  0.91847550  1
  F  F77  1  0.49824100  0.75325250  0.83287350  1
  F  F78  1  0.99824100  0.74674750  0.16712650  1
  F  F79  1  0.00000000  0.26454700  0.00000000  1
  F  F80  1  0.74363750  0.48059100  0.08152450  1
  F  F81  1  0.00175900  0.25325250  0.16712650  1
  F  F82  1  0.25636250  0.51940900  0.08152450  1
  F  F83  1  0.00000000  0.73545300  0.00000000  1
  F  F84  1  0.75636250  0.48059100  0.41847550  1
  F  F85  1  0.50175900  0.74674750  0.33287350  1
  F  F86  1  0.24363750  0.51940900  0.41847550  1
  F  F87  1  0.49824100  0.25325250  0.33287350  1
