# generated using pymatgen
data_Li4CrF6
_symmetry_space_group_name_H-M   'P 1'
_cell_length_a   15.02643000
_cell_length_b   9.11892400
_cell_length_c   10.46290544
_cell_angle_alpha   90.00000000
_cell_angle_beta   93.80960677
_cell_angle_gamma   90.00000000
_symmetry_Int_Tables_number   1
_chemical_formula_structural   Li4CrF6
_chemical_formula_sum   'Li48 Cr12 F72'
_cell_volume   1430.51035248
_cell_formula_units_Z   12
loop_
 _symmetry_equiv_pos_site_id
 _symmetry_equiv_pos_as_xyz
  1  'x, y, z'
loop_
 _atom_site_type_symbol
 _atom_site_label
 _atom_site_symmetry_multiplicity
 _atom_site_fract_x
 _atom_site_fract_y
 _atom_site_fract_z
 _atom_site_occupancy
  Li  Li0  1  0.16308450  0.86630250  0.96601300  1
  Li  Li1  1  0.19866950  0.85450250  0.20838800  1
  Li  Li2  1  0.33158350  0.67019250  0.97188000  1
  Li  Li3  1  0.16096500  0.14920900  0.47242700  1
  Li  Li4  1  0.19954700  0.13843300  0.71543100  1
  Li  Li5  1  0.34322500  0.81061100  0.73349800  1
  Li  Li6  1  0.50000000  0.69814500  0.00000000  1
  Li  Li7  1  0.33504400  0.19762300  0.23230500  1
  Li  Li8  1  0.47797850  0.84749150  0.22978700  1
  Li  Li9  1  0.50000000  0.67890200  0.50000000  1
  Li  Li10  1  0.52202150  0.84749150  0.77021300  1
  Li  Li11  1  0.66841650  0.67019250  0.02812000  1
  Li  Li12  1  0.36807850  0.33734350  0.47878600  1
  Li  Li13  1  0.50000000  0.01087700  0.50000000  1
  Li  Li14  1  0.47897000  0.16353000  0.72798700  1
  Li  Li15  1  0.50000000  0.29635000  0.00000000  1
  Li  Li16  1  0.52103000  0.16353000  0.27201300  1
  Li  Li17  1  0.65677500  0.81061100  0.26650200  1
  Li  Li18  1  0.66495600  0.19762300  0.76769500  1
  Li  Li19  1  0.80133050  0.85450250  0.79161200  1
  Li  Li20  1  0.83691550  0.86630250  0.03398700  1
  Li  Li21  1  0.63192150  0.33734350  0.52121400  1
  Li  Li22  1  0.80045300  0.13843300  0.28456900  1
  Li  Li23  1  0.83903500  0.14920900  0.52757300  1
  Li  Li24  1  0.66308450  0.36630250  0.96601300  1
  Li  Li25  1  0.69866950  0.35450250  0.20838800  1
  Li  Li26  1  0.83158350  0.17019250  0.97188000  1
  Li  Li27  1  0.66096500  0.64920900  0.47242700  1
  Li  Li28  1  0.69954700  0.63843300  0.71543100  1
  Li  Li29  1  0.84322500  0.31061100  0.73349800  1
  Li  Li30  1  0.00000000  0.19814500  0.00000000  1
  Li  Li31  1  0.83504400  0.69762300  0.23230500  1
  Li  Li32  1  0.97797850  0.34749150  0.22978700  1
  Li  Li33  1  0.00000000  0.17890200  0.50000000  1
  Li  Li34  1  0.02202150  0.34749150  0.77021300  1
  Li  Li35  1  0.16841650  0.17019250  0.02812000  1
  Li  Li36  1  0.86807850  0.83734350  0.47878600  1
  Li  Li37  1  0.00000000  0.51087700  0.50000000  1
  Li  Li38  1  0.97897000  0.66353000  0.72798700  1
  Li  Li39  1  0.00000000  0.79635000  0.00000000  1
  Li  Li40  1  0.02103000  0.66353000  0.27201300  1
  Li  Li41  1  0.15677500  0.31061100  0.26650200  1
  Li  Li42  1  0.16495600  0.69762300  0.76769500  1
  Li  Li43  1  0.30133050  0.35450250  0.79161200  1
  Li  Li44  1  0.33691550  0.36630250  0.03398700  1
  Li  Li45  1  0.13192150  0.83734350  0.52121400  1
  Li  Li46  1  0.30045300  0.63843300  0.28456900  1
  Li  Li47  1  0.33903500  0.64920900  0.52757300  1
  Cr  Cr48  1  0.34513000  0.00609200  0.96480900  1
  Cr  Cr49  1  0.32572700  0.99051900  0.46092000  1
  Cr  Cr50  1  0.65487000  0.00609200  0.03519100  1
  Cr  Cr51  1  0.67427300  0.99051900  0.53908000  1
  Cr  Cr52  1  0.99879800  0.00083000  0.24901600  1
  Cr  Cr53  1  0.00120200  0.00083000  0.75098400  1
  Cr  Cr54  1  0.84513000  0.50609200  0.96480900  1
  Cr  Cr55  1  0.82572700  0.49051900  0.46092000  1
  Cr  Cr56  1  0.15487000  0.50609200  0.03519100  1
  Cr  Cr57  1  0.17427300  0.49051900  0.53908000  1
  Cr  Cr58  1  0.49879800  0.50083000  0.24901600  1
  Cr  Cr59  1  0.50120200  0.50083000  0.75098400  1
  F  F60  1  0.07864300  0.01527500  0.92092600  1
  F  F61  1  0.07676550  0.00232550  0.41667600  1
  F  F62  1  0.25645150  0.81331650  0.86731600  1
  F  F63  1  0.25883100  0.82199500  0.36798400  1
  F  F64  1  0.23922700  0.99153000  0.08694000  1
  F  F65  1  0.22621600  0.00347500  0.58437200  1
  F  F66  1  0.42514500  0.68962700  0.84011400  1
  F  F67  1  0.26422450  0.16710750  0.87462700  1
  F  F68  1  0.40750200  0.83676000  0.06330700  1
  F  F69  1  0.42420100  0.66739500  0.32668100  1
  F  F70  1  0.24901600  0.18468000  0.36104700  1
  F  F71  1  0.41662550  0.81485050  0.57612900  1
  F  F72  1  0.42075200  0.99125200  0.80975400  1
  F  F73  1  0.57485500  0.68962700  0.15988600  1
  F  F74  1  0.40804900  0.19576800  0.08106300  1
  F  F75  1  0.42342150  0.00000350  0.33279200  1
  F  F76  1  0.57579900  0.66739500  0.67331900  1
  F  F77  1  0.40435650  0.14242450  0.56013800  1
  F  F78  1  0.59249800  0.83676000  0.93669300  1
  F  F79  1  0.42551950  0.33369550  0.82991400  1
  F  F80  1  0.57924800  0.99125200  0.19024600  1
  F  F81  1  0.58337450  0.81485050  0.42387100  1
  F  F82  1  0.42494750  0.30724050  0.32496000  1
  F  F83  1  0.57657850  0.00000350  0.66720800  1
  F  F84  1  0.59195100  0.19576800  0.91893700  1
  F  F85  1  0.74354850  0.81331650  0.13268400  1
  F  F86  1  0.57448050  0.33369550  0.17008600  1
  F  F87  1  0.59564350  0.14242450  0.43986200  1
  F  F88  1  0.74116900  0.82199500  0.63201600  1
  F  F89  1  0.57505250  0.30724050  0.67504000  1
  F  F90  1  0.76077300  0.99153000  0.91306000  1
  F  F91  1  0.77378400  0.00347500  0.41562800  1
  F  F92  1  0.73577550  0.16710750  0.12537300  1
  F  F93  1  0.75098400  0.18468000  0.63895300  1
  F  F94  1  0.92135700  0.01527500  0.07907400  1
  F  F95  1  0.92323450  0.00232550  0.58332400  1
  F  F96  1  0.57864300  0.51527500  0.92092600  1
  F  F97  1  0.57676550  0.50232550  0.41667600  1
  F  F98  1  0.75645150  0.31331650  0.86731600  1
  F  F99  1  0.75883100  0.32199500  0.36798400  1
  F  F100  1  0.73922700  0.49153000  0.08694000  1
  F  F101  1  0.72621600  0.50347500  0.58437200  1
  F  F102  1  0.92514500  0.18962700  0.84011400  1
  F  F103  1  0.76422450  0.66710750  0.87462700  1
  F  F104  1  0.90750200  0.33676000  0.06330700  1
  F  F105  1  0.92420100  0.16739500  0.32668100  1
  F  F106  1  0.74901600  0.68468000  0.36104700  1
  F  F107  1  0.91662550  0.31485050  0.57612900  1
  F  F108  1  0.92075200  0.49125200  0.80975400  1
  F  F109  1  0.07485500  0.18962700  0.15988600  1
  F  F110  1  0.90804900  0.69576800  0.08106300  1
  F  F111  1  0.92342150  0.50000350  0.33279200  1
  F  F112  1  0.07579900  0.16739500  0.67331900  1
  F  F113  1  0.90435650  0.64242450  0.56013800  1
  F  F114  1  0.09249800  0.33676000  0.93669300  1
  F  F115  1  0.92551950  0.83369550  0.82991400  1
  F  F116  1  0.07924800  0.49125200  0.19024600  1
  F  F117  1  0.08337450  0.31485050  0.42387100  1
  F  F118  1  0.92494750  0.80724050  0.32496000  1
  F  F119  1  0.07657850  0.50000350  0.66720800  1
  F  F120  1  0.09195100  0.69576800  0.91893700  1
  F  F121  1  0.24354850  0.31331650  0.13268400  1
  F  F122  1  0.07448050  0.83369550  0.17008600  1
  F  F123  1  0.09564350  0.64242450  0.43986200  1
  F  F124  1  0.24116900  0.32199500  0.63201600  1
  F  F125  1  0.07505250  0.80724050  0.67504000  1
  F  F126  1  0.26077300  0.49153000  0.91306000  1
  F  F127  1  0.27378400  0.50347500  0.41562800  1
  F  F128  1  0.23577550  0.66710750  0.12537300  1
  F  F129  1  0.25098400  0.68468000  0.63895300  1
  F  F130  1  0.42135700  0.51527500  0.07907400  1
  F  F131  1  0.42323450  0.50232550  0.58332400  1
