# generated using pymatgen
data_H7SIO10
_symmetry_space_group_name_H-M   'P 1'
_cell_length_a   18.78487000
_cell_length_b   18.78487000
_cell_length_c   9.21659000
_cell_angle_alpha   90.00000000
_cell_angle_beta   90.00000000
_cell_angle_gamma   90.00000000
_symmetry_Int_Tables_number   1
_chemical_formula_structural   H7SIO10
_chemical_formula_sum   'H112 S16 I16 O160'
_cell_volume   3252.27047198
_cell_formula_units_Z   16
loop_
 _symmetry_equiv_pos_site_id
 _symmetry_equiv_pos_as_xyz
  1  'x, y, z'
loop_
 _atom_site_type_symbol
 _atom_site_label
 _atom_site_symmetry_multiplicity
 _atom_site_fract_x
 _atom_site_fract_y
 _atom_site_fract_z
 _atom_site_occupancy
  H  H0  1  0.94363050  0.20537350  0.47081250  1
  H  H1  1  0.92560400  0.19917200  0.02907200  1
  H  H2  1  0.84153650  0.28318350  0.11221250  1
  H  H3  1  0.84124700  0.29092900  0.59325700  1
  H  H4  1  0.80082800  0.42560400  0.77907200  1
  H  H5  1  0.29092900  0.65875300  0.34325700  1
  H  H6  1  0.79462650  0.44363050  0.22081250  1
  H  H7  1  0.28318350  0.65846350  0.86221250  1
  H  H8  1  0.71681650  0.34153650  0.86221250  1
  H  H9  1  0.20537350  0.55636950  0.22081250  1
  H  H10  1  0.70907100  0.34124700  0.34325700  1
  H  H11  1  0.19917200  0.57439600  0.77907200  1
  H  H12  1  0.15875300  0.70907100  0.59325700  1
  H  H13  1  0.15846350  0.71681650  0.11221250  1
  H  H14  1  0.16056900  0.46349000  0.60821300  1
  H  H15  1  0.66056900  0.46349000  0.64178700  1
  H  H16  1  0.11002800  0.42610800  0.25730400  1
  H  H17  1  0.61002800  0.42610800  0.99269600  1
  H  H18  1  0.59930500  0.47500700  0.27518500  1
  H  H19  1  0.09930500  0.47500700  0.97481500  1
  H  H20  1  0.07439600  0.80082800  0.02907200  1
  H  H21  1  0.07389200  0.61002800  0.24269600  1
  H  H22  1  0.07389200  0.11002800  0.50730400  1
  H  H23  1  0.05636950  0.79462650  0.47081250  1
  H  H24  1  0.03651000  0.66056900  0.89178700  1
  H  H25  1  0.03651000  0.16056900  0.85821300  1
  H  H26  1  0.02499300  0.09930500  0.22481500  1
  H  H27  1  0.02499300  0.59930500  0.52518500  1
  H  H28  1  0.97500700  0.90069500  0.22481500  1
  H  H29  1  0.97500700  0.40069500  0.52518500  1
  H  H30  1  0.96349000  0.83943100  0.85821300  1
  H  H31  1  0.96349000  0.33943100  0.89178700  1
  H  H32  1  0.94363050  0.70537350  0.27918750  1
  H  H33  1  0.92610800  0.38997200  0.24269600  1
  H  H34  1  0.92610800  0.88997200  0.50730400  1
  H  H35  1  0.92560400  0.69917200  0.72092800  1
  H  H36  1  0.90069500  0.52499300  0.97481500  1
  H  H37  1  0.40069500  0.52499300  0.27518500  1
  H  H38  1  0.38997200  0.57389200  0.99269600  1
  H  H39  1  0.88997200  0.57389200  0.25730400  1
  H  H40  1  0.33943100  0.53651000  0.64178700  1
  H  H41  1  0.83943100  0.53651000  0.60821300  1
  H  H42  1  0.84153650  0.78318350  0.63778750  1
  H  H43  1  0.84124700  0.79092900  0.15674300  1
  H  H44  1  0.30082800  0.42560400  0.47092800  1
  H  H45  1  0.79092900  0.65875300  0.90674300  1
  H  H46  1  0.29462650  0.44363050  0.02918750  1
  H  H47  1  0.78318350  0.65846350  0.38778750  1
  H  H48  1  0.21681650  0.34153650  0.38778750  1
  H  H49  1  0.70537350  0.55636950  0.02918750  1
  H  H50  1  0.20907100  0.34124700  0.90674300  1
  H  H51  1  0.69917200  0.57439600  0.47092800  1
  H  H52  1  0.15875300  0.20907100  0.15674300  1
  H  H53  1  0.15846350  0.21681650  0.63778750  1
  H  H54  1  0.07439600  0.30082800  0.72092800  1
  H  H55  1  0.05636950  0.29462650  0.27918750  1
  H  H56  1  0.44363050  0.70537350  0.97081250  1
  H  H57  1  0.42560400  0.69917200  0.52907200  1
  H  H58  1  0.34153650  0.78318350  0.61221250  1
  H  H59  1  0.34124700  0.79092900  0.09325700  1
  H  H60  1  0.30082800  0.92560400  0.27907200  1
  H  H61  1  0.79092900  0.15875300  0.84325700  1
  H  H62  1  0.29462650  0.94363050  0.72081250  1
  H  H63  1  0.78318350  0.15846350  0.36221250  1
  H  H64  1  0.21681650  0.84153650  0.36221250  1
  H  H65  1  0.70537350  0.05636950  0.72081250  1
  H  H66  1  0.20907100  0.84124700  0.84325700  1
  H  H67  1  0.69917200  0.07439600  0.27907200  1
  H  H68  1  0.65875300  0.20907100  0.09325700  1
  H  H69  1  0.65846350  0.21681650  0.61221250  1
  H  H70  1  0.66056900  0.96349000  0.10821300  1
  H  H71  1  0.16056900  0.96349000  0.14178700  1
  H  H72  1  0.61002800  0.92610800  0.75730400  1
  H  H73  1  0.11002800  0.92610800  0.49269600  1
  H  H74  1  0.09930500  0.97500700  0.77518500  1
  H  H75  1  0.59930500  0.97500700  0.47481500  1
  H  H76  1  0.57439600  0.30082800  0.52907200  1
  H  H77  1  0.57389200  0.11002800  0.74269600  1
  H  H78  1  0.57389200  0.61002800  0.00730400  1
  H  H79  1  0.55636950  0.29462650  0.97081250  1
  H  H80  1  0.53651000  0.16056900  0.39178700  1
  H  H81  1  0.53651000  0.66056900  0.35821300  1
  H  H82  1  0.52499300  0.59930500  0.72481500  1
  H  H83  1  0.52499300  0.09930500  0.02518500  1
  H  H84  1  0.47500700  0.40069500  0.72481500  1
  H  H85  1  0.47500700  0.90069500  0.02518500  1
  H  H86  1  0.46349000  0.33943100  0.35821300  1
  H  H87  1  0.46349000  0.83943100  0.39178700  1
  H  H88  1  0.44363050  0.20537350  0.77918750  1
  H  H89  1  0.42610800  0.88997200  0.74269600  1
  H  H90  1  0.42610800  0.38997200  0.00730400  1
  H  H91  1  0.42560400  0.19917200  0.22092800  1
  H  H92  1  0.40069500  0.02499300  0.47481500  1
  H  H93  1  0.90069500  0.02499300  0.77518500  1
  H  H94  1  0.88997200  0.07389200  0.49269600  1
  H  H95  1  0.38997200  0.07389200  0.75730400  1
  H  H96  1  0.83943100  0.03651000  0.14178700  1
  H  H97  1  0.33943100  0.03651000  0.10821300  1
  H  H98  1  0.34153650  0.28318350  0.13778750  1
  H  H99  1  0.34124700  0.29092900  0.65674300  1
  H  H100  1  0.80082800  0.92560400  0.97092800  1
  H  H101  1  0.29092900  0.15875300  0.40674300  1
  H  H102  1  0.79462650  0.94363050  0.52918750  1
  H  H103  1  0.28318350  0.15846350  0.88778750  1
  H  H104  1  0.71681650  0.84153650  0.88778750  1
  H  H105  1  0.20537350  0.05636950  0.52918750  1
  H  H106  1  0.70907100  0.84124700  0.40674300  1
  H  H107  1  0.19917200  0.07439600  0.97092800  1
  H  H108  1  0.65875300  0.70907100  0.65674300  1
  H  H109  1  0.65846350  0.71681650  0.13778750  1
  H  H110  1  0.57439600  0.80082800  0.22092800  1
  H  H111  1  0.55636950  0.79462650  0.77918750  1
  S  S112  1  0.89461900  0.17506900  0.74347400  1
  S  S113  1  0.82493100  0.39461900  0.49347400  1
  S  S114  1  0.17506900  0.60538100  0.49347400  1
  S  S115  1  0.10538100  0.82493100  0.74347400  1
  S  S116  1  0.89461900  0.67506900  0.00652600  1
  S  S117  1  0.32493100  0.39461900  0.75652600  1
  S  S118  1  0.67506900  0.60538100  0.75652600  1
  S  S119  1  0.10538100  0.32493100  0.00652600  1
  S  S120  1  0.39461900  0.67506900  0.24347400  1
  S  S121  1  0.32493100  0.89461900  0.99347400  1
  S  S122  1  0.67506900  0.10538100  0.99347400  1
  S  S123  1  0.60538100  0.32493100  0.24347400  1
  S  S124  1  0.39461900  0.17506900  0.50652600  1
  S  S125  1  0.82493100  0.89461900  0.25652600  1
  S  S126  1  0.17506900  0.10538100  0.25652600  1
  S  S127  1  0.60538100  0.82493100  0.50652600  1
  I  I128  1  0.63639250  0.59861350  0.23969250  1
  I  I129  1  0.13639250  0.59861350  0.01030750  1
  I  I130  1  0.09861350  0.36360750  0.48969250  1
  I  I131  1  0.09861350  0.86360750  0.26030750  1
  I  I132  1  0.90138650  0.63639250  0.48969250  1
  I  I133  1  0.90138650  0.13639250  0.26030750  1
  I  I134  1  0.86360750  0.40138650  0.01030750  1
  I  I135  1  0.36360750  0.40138650  0.23969250  1
  I  I136  1  0.13639250  0.09861350  0.73969250  1
  I  I137  1  0.63639250  0.09861350  0.51030750  1
  I  I138  1  0.59861350  0.86360750  0.98969250  1
  I  I139  1  0.59861350  0.36360750  0.76030750  1
  I  I140  1  0.40138650  0.13639250  0.98969250  1
  I  I141  1  0.40138650  0.63639250  0.76030750  1
  I  I142  1  0.36360750  0.90138650  0.51030750  1
  I  I143  1  0.86360750  0.90138650  0.73969250  1
  O  O144  1  0.90881850  0.23077750  0.63414150  1
  O  O145  1  0.90617300  0.21525600  0.12634500  1
  O  O146  1  0.82625550  0.18962250  0.34983850  1
  O  O147  1  0.82220000  0.19960800  0.81327000  1
  O  O148  1  0.81037750  0.32625550  0.09983850  1
  O  O149  1  0.80039200  0.32220000  0.56327000  1
  O  O150  1  0.78474400  0.40617300  0.87634500  1
  O  O151  1  0.76922250  0.40881850  0.38414150  1
  O  O152  1  0.23077750  0.59118150  0.38414150  1
  O  O153  1  0.21525600  0.59382700  0.87634500  1
  O  O154  1  0.19960800  0.67780000  0.56327000  1
  O  O155  1  0.18962250  0.67374450  0.09983850  1
  O  O156  1  0.68210500  0.53242900  0.11469000  1
  O  O157  1  0.18210500  0.53242900  0.13531000  1
  O  O158  1  0.17780000  0.80039200  0.81327000  1
  O  O159  1  0.17374450  0.81037750  0.34983850  1
  O  O160  1  0.67462900  0.55205300  0.63912900  1
  O  O161  1  0.17462900  0.55205300  0.61087100  1
  O  O162  1  0.16006700  0.41008900  0.62255500  1
  O  O163  1  0.66006700  0.41008900  0.62744500  1
  O  O164  1  0.61532700  0.39613900  0.17982200  1
  O  O165  1  0.11532700  0.39613900  0.07017800  1
  O  O166  1  0.61102150  0.44290650  0.88970750  1
  O  O167  1  0.11102150  0.44290650  0.36029250  1
  O  O168  1  0.10386100  0.61532700  0.42982200  1
  O  O169  1  0.10386100  0.11532700  0.32017800  1
  O  O170  1  0.09382700  0.78474400  0.12634500  1
  O  O171  1  0.09118150  0.76922250  0.63414150  1
  O  O172  1  0.09192050  0.52000150  0.91740550  1
  O  O173  1  0.59192050  0.52000150  0.33259450  1
  O  O174  1  0.08991100  0.16006700  0.87255500  1
  O  O175  1  0.08991100  0.66006700  0.87744500  1
  O  O176  1  0.05709350  0.11102150  0.61029250  1
  O  O177  1  0.05709350  0.61102150  0.13970750  1
  O  O178  1  0.05205300  0.82537100  0.86087100  1
  O  O179  1  0.05205300  0.32537100  0.88912900  1
  O  O180  1  0.03242900  0.81789500  0.38531000  1
  O  O181  1  0.03242900  0.31789500  0.36469000  1
  O  O182  1  0.02000150  0.40807950  0.58259450  1
  O  O183  1  0.02000150  0.90807950  0.16740550  1
  O  O184  1  0.97999850  0.59192050  0.58259450  1
  O  O185  1  0.97999850  0.09192050  0.16740550  1
  O  O186  1  0.96757100  0.68210500  0.36469000  1
  O  O187  1  0.96757100  0.18210500  0.38531000  1
  O  O188  1  0.94794700  0.67462900  0.88912900  1
  O  O189  1  0.94794700  0.17462900  0.86087100  1
  O  O190  1  0.94290650  0.38897850  0.13970750  1
  O  O191  1  0.94290650  0.88897850  0.61029250  1
  O  O192  1  0.91008900  0.33993300  0.87744500  1
  O  O193  1  0.91008900  0.83993300  0.87255500  1
  O  O194  1  0.90807950  0.47999850  0.91740550  1
  O  O195  1  0.40807950  0.47999850  0.33259450  1
  O  O196  1  0.90881850  0.73077750  0.11585850  1
  O  O197  1  0.90617300  0.71525600  0.62365500  1
  O  O198  1  0.89613900  0.38467300  0.42982200  1
  O  O199  1  0.89613900  0.88467300  0.32017800  1
  O  O200  1  0.88897850  0.55709350  0.36029250  1
  O  O201  1  0.38897850  0.55709350  0.88970750  1
  O  O202  1  0.88467300  0.60386100  0.07017800  1
  O  O203  1  0.38467300  0.60386100  0.17982200  1
  O  O204  1  0.33993300  0.58991100  0.62744500  1
  O  O205  1  0.83993300  0.58991100  0.62255500  1
  O  O206  1  0.82537100  0.44794700  0.61087100  1
  O  O207  1  0.32537100  0.44794700  0.63912900  1
  O  O208  1  0.82625550  0.68962250  0.40016150  1
  O  O209  1  0.82220000  0.69960800  0.93673000  1
  O  O210  1  0.81789500  0.46757100  0.13531000  1
  O  O211  1  0.31789500  0.46757100  0.11469000  1
  O  O212  1  0.31037750  0.32625550  0.15016150  1
  O  O213  1  0.30039200  0.32220000  0.68673000  1
  O  O214  1  0.28474400  0.40617300  0.37365500  1
  O  O215  1  0.26922250  0.40881850  0.86585850  1
  O  O216  1  0.73077750  0.59118150  0.86585850  1
  O  O217  1  0.71525600  0.59382700  0.37365500  1
  O  O218  1  0.69960800  0.67780000  0.68673000  1
  O  O219  1  0.68962250  0.67374450  0.15016150  1
  O  O220  1  0.17780000  0.30039200  0.93673000  1
  O  O221  1  0.17374450  0.31037750  0.40016150  1
  O  O222  1  0.09382700  0.28474400  0.62365500  1
  O  O223  1  0.09118150  0.26922250  0.11585850  1
  O  O224  1  0.40881850  0.73077750  0.13414150  1
  O  O225  1  0.40617300  0.71525600  0.62634500  1
  O  O226  1  0.32625550  0.68962250  0.84983850  1
  O  O227  1  0.32220000  0.69960800  0.31327000  1
  O  O228  1  0.31037750  0.82625550  0.59983850  1
  O  O229  1  0.30039200  0.82220000  0.06327000  1
  O  O230  1  0.28474400  0.90617300  0.37634500  1
  O  O231  1  0.26922250  0.90881850  0.88414150  1
  O  O232  1  0.73077750  0.09118150  0.88414150  1
  O  O233  1  0.71525600  0.09382700  0.37634500  1
  O  O234  1  0.69960800  0.17780000  0.06327000  1
  O  O235  1  0.68962250  0.17374450  0.59983850  1
  O  O236  1  0.18210500  0.03242900  0.61469000  1
  O  O237  1  0.68210500  0.03242900  0.63531000  1
  O  O238  1  0.67780000  0.30039200  0.31327000  1
  O  O239  1  0.67374450  0.31037750  0.84983850  1
  O  O240  1  0.17462900  0.05205300  0.13912900  1
  O  O241  1  0.67462900  0.05205300  0.11087100  1
  O  O242  1  0.66006700  0.91008900  0.12255500  1
  O  O243  1  0.16006700  0.91008900  0.12744500  1
  O  O244  1  0.11532700  0.89613900  0.67982200  1
  O  O245  1  0.61532700  0.89613900  0.57017800  1
  O  O246  1  0.11102150  0.94290650  0.38970750  1
  O  O247  1  0.61102150  0.94290650  0.86029250  1
  O  O248  1  0.60386100  0.11532700  0.92982200  1
  O  O249  1  0.60386100  0.61532700  0.82017800  1
  O  O250  1  0.59382700  0.28474400  0.62634500  1
  O  O251  1  0.59118150  0.26922250  0.13414150  1
  O  O252  1  0.59192050  0.02000150  0.41740550  1
  O  O253  1  0.09192050  0.02000150  0.83259450  1
  O  O254  1  0.58991100  0.66006700  0.37255500  1
  O  O255  1  0.58991100  0.16006700  0.37744500  1
  O  O256  1  0.55709350  0.61102150  0.11029250  1
  O  O257  1  0.55709350  0.11102150  0.63970750  1
  O  O258  1  0.55205300  0.32537100  0.36087100  1
  O  O259  1  0.55205300  0.82537100  0.38912900  1
  O  O260  1  0.53242900  0.31789500  0.88531000  1
  O  O261  1  0.53242900  0.81789500  0.86469000  1
  O  O262  1  0.52000150  0.90807950  0.08259450  1
  O  O263  1  0.52000150  0.40807950  0.66740550  1
  O  O264  1  0.47999850  0.09192050  0.08259450  1
  O  O265  1  0.47999850  0.59192050  0.66740550  1
  O  O266  1  0.46757100  0.18210500  0.86469000  1
  O  O267  1  0.46757100  0.68210500  0.88531000  1
  O  O268  1  0.44794700  0.17462900  0.38912900  1
  O  O269  1  0.44794700  0.67462900  0.36087100  1
  O  O270  1  0.44290650  0.88897850  0.63970750  1
  O  O271  1  0.44290650  0.38897850  0.11029250  1
  O  O272  1  0.41008900  0.83993300  0.37744500  1
  O  O273  1  0.41008900  0.33993300  0.37255500  1
  O  O274  1  0.40807950  0.97999850  0.41740550  1
  O  O275  1  0.90807950  0.97999850  0.83259450  1
  O  O276  1  0.40881850  0.23077750  0.61585850  1
  O  O277  1  0.40617300  0.21525600  0.12365500  1
  O  O278  1  0.39613900  0.88467300  0.92982200  1
  O  O279  1  0.39613900  0.38467300  0.82017800  1
  O  O280  1  0.38897850  0.05709350  0.86029250  1
  O  O281  1  0.88897850  0.05709350  0.38970750  1
  O  O282  1  0.38467300  0.10386100  0.57017800  1
  O  O283  1  0.88467300  0.10386100  0.67982200  1
  O  O284  1  0.83993300  0.08991100  0.12744500  1
  O  O285  1  0.33993300  0.08991100  0.12255500  1
  O  O286  1  0.32537100  0.94794700  0.11087100  1
  O  O287  1  0.82537100  0.94794700  0.13912900  1
  O  O288  1  0.32625550  0.18962250  0.90016150  1
  O  O289  1  0.32220000  0.19960800  0.43673000  1
  O  O290  1  0.31789500  0.96757100  0.63531000  1
  O  O291  1  0.81789500  0.96757100  0.61469000  1
  O  O292  1  0.81037750  0.82625550  0.65016150  1
  O  O293  1  0.80039200  0.82220000  0.18673000  1
  O  O294  1  0.78474400  0.90617300  0.87365500  1
  O  O295  1  0.76922250  0.90881850  0.36585850  1
  O  O296  1  0.23077750  0.09118150  0.36585850  1
  O  O297  1  0.21525600  0.09382700  0.87365500  1
  O  O298  1  0.19960800  0.17780000  0.18673000  1
  O  O299  1  0.18962250  0.17374450  0.65016150  1
  O  O300  1  0.67780000  0.80039200  0.43673000  1
  O  O301  1  0.67374450  0.81037750  0.90016150  1
  O  O302  1  0.59382700  0.78474400  0.12365500  1
  O  O303  1  0.59118150  0.76922250  0.61585850  1
