# generated using pymatgen
data_NaGdS2
_symmetry_space_group_name_H-M   'P 1'
_cell_length_a   4.03285583
_cell_length_b   4.03285583
_cell_length_c   20.06877715
_cell_angle_alpha   90.00000000
_cell_angle_beta   90.00000000
_cell_angle_gamma   120.00000000
_symmetry_Int_Tables_number   1
_chemical_formula_structural   NaGdS2
_chemical_formula_sum   'Na3 Gd3 S6'
_cell_volume   282.66818808
_cell_formula_units_Z   3
loop_
 _symmetry_equiv_pos_site_id
 _symmetry_equiv_pos_as_xyz
  1  'x, y, z'
loop_
 _atom_site_type_symbol
 _atom_site_label
 _atom_site_symmetry_multiplicity
 _atom_site_fract_x
 _atom_site_fract_y
 _atom_site_fract_z
 _atom_site_occupancy
  Na  Na0  1  0.33333333  0.66666667  0.16666667  1
  Na  Na1  1  1.00000000  1.00000000  0.50000000  1
  Na  Na2  1  0.66666667  0.33333333  0.83333333  1
  Gd  Gd3  1  0.00000000  0.00000000  0.00000000  1
  Gd  Gd4  1  0.66666667  0.33333333  0.33333333  1
  Gd  Gd5  1  0.33333333  0.66666667  0.66666667  1
  S  S6  1  0.66666667  0.33333333  0.07590533  1
  S  S7  1  0.00000000  0.00000000  0.25742800  1
  S  S8  1  0.33333333  0.66666667  0.40923867  1
  S  S9  1  0.66666667  0.33333333  0.59076133  1
  S  S10  1  0.00000000  0.00000000  0.74257200  1
  S  S11  1  0.33333333  0.66666667  0.92409467  1
