# generated using pymatgen
data_Ba5Y3Br19
_symmetry_space_group_name_H-M   'P 1'
_cell_length_a   10.61282300
_cell_length_b   14.22741891
_cell_length_c   15.07750969
_cell_angle_alpha   85.85611700
_cell_angle_beta   70.26914345
_cell_angle_gamma   77.76058913
_symmetry_Int_Tables_number   1
_chemical_formula_structural   Ba5Y3Br19
_chemical_formula_sum   'Ba10 Y6 Br38'
_cell_volume   2094.22894513
_cell_formula_units_Z   2
loop_
 _symmetry_equiv_pos_site_id
 _symmetry_equiv_pos_as_xyz
  1  'x, y, z'
loop_
 _atom_site_type_symbol
 _atom_site_label
 _atom_site_symmetry_multiplicity
 _atom_site_fract_x
 _atom_site_fract_y
 _atom_site_fract_z
 _atom_site_occupancy
  Ba  Ba0  1  0.23287100  0.57275900  0.45434200  1
  Ba  Ba1  1  0.50722100  0.82560600  0.24568800  1
  Ba  Ba2  1  0.91858300  0.34070900  0.80330000  1
  Ba  Ba3  1  0.23952700  0.27573000  0.17156200  1
  Ba  Ba4  1  0.71592600  0.18813300  0.33809400  1
  Ba  Ba5  1  0.28407400  0.81186700  0.66190600  1
  Ba  Ba6  1  0.76047300  0.72427000  0.82843800  1
  Ba  Ba7  1  0.08141700  0.65929100  0.19670000  1
  Ba  Ba8  1  0.49277900  0.17439400  0.75431200  1
  Ba  Ba9  1  0.76712900  0.42724100  0.54565800  1
  Y  Y10  1  0.67470300  0.47089300  0.17088800  1
  Y  Y11  1  0.24338600  0.99689900  0.01454500  1
  Y  Y12  1  0.85034200  0.82484400  0.47864800  1
  Y  Y13  1  0.14965800  0.17515600  0.52135200  1
  Y  Y14  1  0.75661400  0.00310100  0.98545500  1
  Y  Y15  1  0.32529700  0.52910700  0.82911200  1
  Br  Br16  1  0.54449800  0.32999500  0.15015400  1
  Br  Br17  1  0.76618500  0.51138000  0.97518700  1
  Br  Br18  1  0.23870900  0.14749400  0.67714000  1
  Br  Br19  1  0.59342100  0.43576300  0.36899400  1
  Br  Br20  1  0.78530400  0.61910000  0.20960900  1
  Br  Br21  1  0.42750500  0.61350800  0.21627500  1
  Br  Br22  1  0.29057300  0.81055800  0.08087800  1
  Br  Br23  1  0.75673600  0.80524300  0.03663900  1
  Br  Br24  1  0.10682700  0.37633200  0.55944700  1
  Br  Br25  1  0.50000000  0.00000000  0.00000000  1
  Br  Br26  1  0.00000000  0.00000000  0.00000000  1
  Br  Br27  1  0.42086600  0.72929800  0.44674000  1
  Br  Br28  1  0.12035600  0.79989200  0.34510400  1
  Br  Br29  1  0.14005200  0.06514700  0.19933700  1
  Br  Br30  1  0.63726400  0.04714500  0.18039600  1
  Br  Br31  1  0.83559500  0.53969500  0.70381900  1
  Br  Br32  1  0.00945400  0.75718400  0.60483800  1
  Br  Br33  1  0.61909500  0.79787200  0.62562700  1
  Br  Br34  1  0.90361800  0.32241200  0.16406400  1
  Br  Br35  1  0.22021500  0.97893000  0.49410800  1
  Br  Br36  1  0.77978500  0.02107000  0.50589200  1
  Br  Br37  1  0.09638200  0.67758800  0.83593600  1
  Br  Br38  1  0.38090500  0.20212800  0.37437300  1
  Br  Br39  1  0.99054600  0.24281600  0.39516200  1
  Br  Br40  1  0.16440500  0.46030500  0.29618100  1
  Br  Br41  1  0.36273600  0.95285500  0.81960400  1
  Br  Br42  1  0.85994800  0.93485300  0.80066300  1
  Br  Br43  1  0.87964400  0.20010800  0.65489600  1
  Br  Br44  1  0.57913400  0.27070200  0.55326000  1
  Br  Br45  1  0.89317300  0.62366800  0.44055300  1
  Br  Br46  1  0.24326400  0.19475700  0.96336100  1
  Br  Br47  1  0.70942700  0.18944200  0.91912200  1
  Br  Br48  1  0.57249500  0.38649200  0.78372500  1
  Br  Br49  1  0.21469600  0.38090000  0.79039100  1
  Br  Br50  1  0.40657900  0.56423700  0.63100600  1
  Br  Br51  1  0.76129100  0.85250600  0.32286000  1
  Br  Br52  1  0.23381500  0.48862000  0.02481300  1
  Br  Br53  1  0.45550200  0.67000500  0.84984600  1
