# generated using pymatgen
data_LiAgF6
_symmetry_space_group_name_H-M   'P 1'
_cell_length_a   9.35007200
_cell_length_b   9.35007200
_cell_length_c   9.35007200
_cell_angle_alpha   90.00000000
_cell_angle_beta   90.00000000
_cell_angle_gamma   90.00000000
_symmetry_Int_Tables_number   1
_chemical_formula_structural   LiAgF6
_chemical_formula_sum   'Li8 Ag8 F48'
_cell_volume   817.41925841
_cell_formula_units_Z   8
loop_
 _symmetry_equiv_pos_site_id
 _symmetry_equiv_pos_as_xyz
  1  'x, y, z'
loop_
 _atom_site_type_symbol
 _atom_site_label
 _atom_site_symmetry_multiplicity
 _atom_site_fract_x
 _atom_site_fract_y
 _atom_site_fract_z
 _atom_site_occupancy
  Li  Li0  1  0.00000000  0.00000000  0.50000000  1
  Li  Li1  1  0.00000000  0.00000000  0.00000000  1
  Li  Li2  1  0.50000000  0.00000000  0.00000000  1
  Li  Li3  1  0.00000000  0.50000000  0.00000000  1
  Li  Li4  1  0.50000000  0.50000000  0.00000000  1
  Li  Li5  1  0.50000000  0.50000000  0.50000000  1
  Li  Li6  1  0.00000000  0.50000000  0.50000000  1
  Li  Li7  1  0.50000000  0.00000000  0.50000000  1
  Ag  Ag8  1  0.75000000  0.25000000  0.25000000  1
  Ag  Ag9  1  0.25000000  0.75000000  0.25000000  1
  Ag  Ag10  1  0.25000000  0.25000000  0.25000000  1
  Ag  Ag11  1  0.25000000  0.25000000  0.75000000  1
  Ag  Ag12  1  0.25000000  0.75000000  0.75000000  1
  Ag  Ag13  1  0.75000000  0.25000000  0.75000000  1
  Ag  Ag14  1  0.75000000  0.75000000  0.75000000  1
  Ag  Ag15  1  0.75000000  0.75000000  0.25000000  1
  F  F16  1  0.90290550  0.12481050  0.81895150  1
  F  F17  1  0.18104850  0.90290550  0.62481050  1
  F  F18  1  0.37518950  0.68104850  0.59709450  1
  F  F19  1  0.87518950  0.31895150  0.59709450  1
  F  F20  1  0.12481050  0.18104850  0.59709450  1
  F  F21  1  0.31895150  0.90290550  0.37518950  1
  F  F22  1  0.09709450  0.12481050  0.31895150  1
  F  F23  1  0.68104850  0.59709450  0.37518950  1
  F  F24  1  0.90290550  0.37518950  0.31895150  1
  F  F25  1  0.59709450  0.87518950  0.31895150  1
  F  F26  1  0.37518950  0.18104850  0.40290550  1
  F  F27  1  0.18104850  0.40290550  0.37518950  1
  F  F28  1  0.31895150  0.09709450  0.12481050  1
  F  F29  1  0.12481050  0.31895150  0.09709450  1
  F  F30  1  0.90290550  0.62481050  0.18104850  1
  F  F31  1  0.59709450  0.12481050  0.18104850  1
  F  F32  1  0.81895150  0.90290550  0.12481050  1
  F  F33  1  0.40290550  0.37518950  0.18104850  1
  F  F34  1  0.18104850  0.59709450  0.12481050  1
  F  F35  1  0.37518950  0.31895150  0.90290550  1
  F  F36  1  0.62481050  0.18104850  0.90290550  1
  F  F37  1  0.12481050  0.81895150  0.90290550  1
  F  F38  1  0.31895150  0.59709450  0.87518950  1
  F  F39  1  0.59709450  0.37518950  0.68104850  1
  F  F40  1  0.40290550  0.62481050  0.31895150  1
  F  F41  1  0.68104850  0.40290550  0.12481050  1
  F  F42  1  0.87518950  0.18104850  0.09709450  1
  F  F43  1  0.37518950  0.81895150  0.09709450  1
  F  F44  1  0.62481050  0.68104850  0.09709450  1
  F  F45  1  0.81895150  0.40290550  0.87518950  1
  F  F46  1  0.59709450  0.62481050  0.81895150  1
  F  F47  1  0.18104850  0.09709450  0.87518950  1
  F  F48  1  0.40290550  0.87518950  0.81895150  1
  F  F49  1  0.09709450  0.37518950  0.81895150  1
  F  F50  1  0.87518950  0.68104850  0.90290550  1
  F  F51  1  0.68104850  0.90290550  0.87518950  1
  F  F52  1  0.81895150  0.59709450  0.62481050  1
  F  F53  1  0.62481050  0.81895150  0.59709450  1
  F  F54  1  0.40290550  0.12481050  0.68104850  1
  F  F55  1  0.09709450  0.62481050  0.68104850  1
  F  F56  1  0.31895150  0.40290550  0.62481050  1
  F  F57  1  0.90290550  0.87518950  0.68104850  1
  F  F58  1  0.68104850  0.09709450  0.62481050  1
  F  F59  1  0.87518950  0.81895150  0.40290550  1
  F  F60  1  0.12481050  0.68104850  0.40290550  1
  F  F61  1  0.62481050  0.31895150  0.40290550  1
  F  F62  1  0.81895150  0.09709450  0.37518950  1
  F  F63  1  0.09709450  0.87518950  0.18104850  1
