# generated using pymatgen
data_Li6Co6O5F11
_symmetry_space_group_name_H-M   'P 1'
_cell_length_a   10.50048000
_cell_length_b   5.94425000
_cell_length_c   10.50870803
_cell_angle_alpha   90.00000000
_cell_angle_beta   109.85552448
_cell_angle_gamma   90.00000000
_symmetry_Int_Tables_number   1
_chemical_formula_structural   Li6Co6O5F11
_chemical_formula_sum   'Li12 Co12 O10 F22'
_cell_volume   616.93354350
_cell_formula_units_Z   2
loop_
 _symmetry_equiv_pos_site_id
 _symmetry_equiv_pos_as_xyz
  1  'x, y, z'
loop_
 _atom_site_type_symbol
 _atom_site_label
 _atom_site_symmetry_multiplicity
 _atom_site_fract_x
 _atom_site_fract_y
 _atom_site_fract_z
 _atom_site_occupancy
  Li  Li0  1  0.87625500  0.50000000  0.12618300  1
  Li  Li1  1  0.19472800  0.00000000  0.55467300  1
  Li  Li2  1  0.00236800  0.50000000  0.49376500  1
  Li  Li3  1  0.86831300  0.00000000  0.62459000  1
  Li  Li4  1  0.94051100  0.50000000  0.80946700  1
  Li  Li5  1  0.50884900  0.50000000  0.00673100  1
  Li  Li6  1  0.37625500  0.00000000  0.12618300  1
  Li  Li7  1  0.69472800  0.50000000  0.55467300  1
  Li  Li8  1  0.50236800  0.00000000  0.49376500  1
  Li  Li9  1  0.36831300  0.50000000  0.62459000  1
  Li  Li10  1  0.44051100  0.00000000  0.80946700  1
  Li  Li11  1  0.00884900  0.00000000  0.00673100  1
  Co  Co12  1  0.93035800  0.00000000  0.31210900  1
  Co  Co13  1  0.69404700  0.00000000  0.08285500  1
  Co  Co14  1  0.19752850  0.22736550  0.81651000  1
  Co  Co15  1  0.69830100  0.22270600  0.31101800  1
  Co  Co16  1  0.69830100  0.77729400  0.31101800  1
  Co  Co17  1  0.19752850  0.77263450  0.81651000  1
  Co  Co18  1  0.43035800  0.50000000  0.31210900  1
  Co  Co19  1  0.19404700  0.50000000  0.08285500  1
  Co  Co20  1  0.69752850  0.72736550  0.81651000  1
  Co  Co21  1  0.19830100  0.72270600  0.31101800  1
  Co  Co22  1  0.19830100  0.27729400  0.31101800  1
  Co  Co23  1  0.69752850  0.27263450  0.81651000  1
  O  O24  1  0.07521700  0.50000000  0.18726500  1
  O  O25  1  0.80702500  0.23591100  0.18786300  1
  O  O26  1  0.80702500  0.76408900  0.18786300  1
  O  O27  1  0.30685400  0.00000000  0.92230100  1
  O  O28  1  0.81220700  0.00000000  0.43116900  1
  O  O29  1  0.57521700  0.00000000  0.18726500  1
  O  O30  1  0.30702500  0.73591100  0.18786300  1
  O  O31  1  0.30702500  0.26408900  0.18786300  1
  O  O32  1  0.80685400  0.50000000  0.92230100  1
  O  O33  1  0.31220700  0.50000000  0.43116900  1
  F  F34  1  0.07253600  0.00000000  0.20375100  1
  F  F35  1  0.07207900  0.76790700  0.43047900  1
  F  F36  1  0.07207900  0.23209300  0.43047900  1
  F  F37  1  0.30619550  0.23612550  0.69163500  1
  F  F38  1  0.30619550  0.76387450  0.69163500  1
  F  F39  1  0.06812500  0.00000000  0.68389100  1
  F  F40  1  0.30575000  0.50000000  0.93366600  1
  F  F41  1  0.08580300  0.50000000  0.70990000  1
  F  F42  1  0.80285800  0.50000000  0.43019300  1
  F  F43  1  0.07259350  0.26802250  0.92870100  1
  F  F44  1  0.07259350  0.73197750  0.92870100  1
  F  F45  1  0.57253600  0.50000000  0.20375100  1
  F  F46  1  0.57207900  0.26790700  0.43047900  1
  F  F47  1  0.57207900  0.73209300  0.43047900  1
  F  F48  1  0.80619550  0.73612550  0.69163500  1
  F  F49  1  0.80619550  0.26387450  0.69163500  1
  F  F50  1  0.56812500  0.50000000  0.68389100  1
  F  F51  1  0.80575000  0.00000000  0.93366600  1
  F  F52  1  0.58580300  0.00000000  0.70990000  1
  F  F53  1  0.30285800  0.00000000  0.43019300  1
  F  F54  1  0.57259350  0.76802250  0.92870100  1
  F  F55  1  0.57259350  0.23197750  0.92870100  1
