# generated using pymatgen
data_ThNb4O12
_symmetry_space_group_name_H-M   'P 1'
_cell_length_a   5.55610600
_cell_length_b   5.61616300
_cell_length_c   15.81244900
_cell_angle_alpha   90.00000000
_cell_angle_beta   90.00000000
_cell_angle_gamma   90.00000000
_symmetry_Int_Tables_number   1
_chemical_formula_structural   ThNb4O12
_chemical_formula_sum   'Th2 Nb8 O24'
_cell_volume   493.41161023
_cell_formula_units_Z   2
loop_
 _symmetry_equiv_pos_site_id
 _symmetry_equiv_pos_as_xyz
  1  'x, y, z'
loop_
 _atom_site_type_symbol
 _atom_site_label
 _atom_site_symmetry_multiplicity
 _atom_site_fract_x
 _atom_site_fract_y
 _atom_site_fract_z
 _atom_site_occupancy
  Th  Th0  1  0.76118700  0.50000000  0.00000000  1
  Th  Th1  1  0.23881300  0.00000000  0.50000000  1
  Nb  Nb2  1  0.26216000  0.50000000  0.86892200  1
  Nb  Nb3  1  0.23880400  0.50000000  0.37194200  1
  Nb  Nb4  1  0.23880400  0.50000000  0.62805800  1
  Nb  Nb5  1  0.26216000  0.50000000  0.13107800  1
  Nb  Nb6  1  0.73784000  0.00000000  0.63107800  1
  Nb  Nb7  1  0.76119600  0.00000000  0.12805800  1
  Nb  Nb8  1  0.76119600  0.00000000  0.87194200  1
  Nb  Nb9  1  0.73784000  0.00000000  0.36892200  1
  O  O10  1  0.99097100  0.74184000  0.86768800  1
  O  O11  1  0.51326800  0.73367200  0.90124300  1
  O  O12  1  0.00902900  0.75816000  0.63231200  1
  O  O13  1  0.48673200  0.76632800  0.59875700  1
  O  O14  1  0.00902900  0.75816000  0.36768800  1
  O  O15  1  0.48673200  0.76632800  0.40124300  1
  O  O16  1  0.99097100  0.74184000  0.13231200  1
  O  O17  1  0.51326800  0.73367200  0.09875700  1
  O  O18  1  0.31831400  0.50000000  0.74969600  1
  O  O19  1  0.31831400  0.50000000  0.25030400  1
  O  O20  1  0.16709700  0.50000000  0.00000000  1
  O  O21  1  0.19461500  0.50000000  0.50000000  1
  O  O22  1  0.48673200  0.23367200  0.40124300  1
  O  O23  1  0.51326800  0.26632800  0.90124300  1
  O  O24  1  0.51326800  0.26632800  0.09875700  1
  O  O25  1  0.00902900  0.24184000  0.36768800  1
  O  O26  1  0.48673200  0.23367200  0.59875700  1
  O  O27  1  0.99097100  0.25816000  0.13231200  1
  O  O28  1  0.99097100  0.25816000  0.86768800  1
  O  O29  1  0.00902900  0.24184000  0.63231200  1
  O  O30  1  0.80538500  0.00000000  0.00000000  1
  O  O31  1  0.68168600  0.00000000  0.75030400  1
  O  O32  1  0.83290300  0.00000000  0.50000000  1
  O  O33  1  0.68168600  0.00000000  0.24969600  1
