# generated using pymatgen
data_Cs2SnAs2
_symmetry_space_group_name_H-M   'P 1'
_cell_length_a   7.08531400
_cell_length_b   7.90887600
_cell_length_c   14.93048400
_cell_angle_alpha   90.00000000
_cell_angle_beta   90.00000000
_cell_angle_gamma   90.00000000
_symmetry_Int_Tables_number   1
_chemical_formula_structural   Cs2SnAs2
_chemical_formula_sum   'Cs8 Sn4 As8'
_cell_volume   836.65758866
_cell_formula_units_Z   4
loop_
 _symmetry_equiv_pos_site_id
 _symmetry_equiv_pos_as_xyz
  1  'x, y, z'
loop_
 _atom_site_type_symbol
 _atom_site_label
 _atom_site_symmetry_multiplicity
 _atom_site_fract_x
 _atom_site_fract_y
 _atom_site_fract_z
 _atom_site_occupancy
  Cs  Cs0  1  0.50000000  0.33603500  0.35480500  1
  Cs  Cs1  1  0.00000000  0.16396500  0.14519500  1
  Cs  Cs2  1  0.50000000  0.83603500  0.14519500  1
  Cs  Cs3  1  0.00000000  0.66396500  0.35480500  1
  Cs  Cs4  1  0.00000000  0.83603500  0.85480500  1
  Cs  Cs5  1  0.50000000  0.66396500  0.64519500  1
  Cs  Cs6  1  0.00000000  0.33603500  0.64519500  1
  Cs  Cs7  1  0.50000000  0.16396500  0.85480500  1
  Sn  Sn8  1  0.75000000  0.50000000  0.00000000  1
  Sn  Sn9  1  0.25000000  0.50000000  0.00000000  1
  Sn  Sn10  1  0.25000000  0.00000000  0.50000000  1
  Sn  Sn11  1  0.75000000  0.00000000  0.50000000  1
  As  As12  1  0.50000000  0.32735400  0.09899200  1
  As  As13  1  0.00000000  0.17264600  0.40100800  1
  As  As14  1  0.50000000  0.82735400  0.40100800  1
  As  As15  1  0.00000000  0.67264600  0.09899200  1
  As  As16  1  0.00000000  0.82735400  0.59899200  1
  As  As17  1  0.50000000  0.67264600  0.90100800  1
  As  As18  1  0.00000000  0.32735400  0.90100800  1
  As  As19  1  0.50000000  0.17264600  0.59899200  1
