# generated using pymatgen
data_Yb3N2
_symmetry_space_group_name_H-M   'P 1'
_cell_length_a   6.12798820
_cell_length_b   6.12798820
_cell_length_c   16.27292615
_cell_angle_alpha   90.00000000
_cell_angle_beta   90.00000000
_cell_angle_gamma   120.00000000
_symmetry_Int_Tables_number   1
_chemical_formula_structural   Yb3N2
_chemical_formula_sum   'Yb18 N12'
_cell_volume   529.21497666
_cell_formula_units_Z   6
loop_
 _symmetry_equiv_pos_site_id
 _symmetry_equiv_pos_as_xyz
  1  'x, y, z'
loop_
 _atom_site_type_symbol
 _atom_site_label
 _atom_site_symmetry_multiplicity
 _atom_site_fract_x
 _atom_site_fract_y
 _atom_site_fract_z
 _atom_site_occupancy
  Yb  Yb0  1  0.37075867  0.03742533  0.08333333  1
  Yb  Yb1  1  0.96257467  0.33333333  0.08333333  1
  Yb  Yb2  1  0.66666667  0.62924133  0.08333333  1
  Yb  Yb3  1  0.00000000  0.70409200  0.25000000  1
  Yb  Yb4  1  0.70409200  0.00000000  0.25000000  1
  Yb  Yb5  1  0.29590800  0.29590800  0.25000000  1
  Yb  Yb6  1  0.03742533  0.37075867  0.41666667  1
  Yb  Yb7  1  0.62924133  0.66666667  0.41666667  1
  Yb  Yb8  1  0.33333333  0.96257467  0.41666667  1
  Yb  Yb9  1  0.66666667  0.03742533  0.58333333  1
  Yb  Yb10  1  0.37075867  0.33333333  0.58333333  1
  Yb  Yb11  1  0.96257467  0.62924133  0.58333333  1
  Yb  Yb12  1  0.70409200  0.70409200  0.75000000  1
  Yb  Yb13  1  0.29590800  0.00000000  0.75000000  1
  Yb  Yb14  1  0.00000000  0.29590800  0.75000000  1
  Yb  Yb15  1  0.33333333  0.37075867  0.91666667  1
  Yb  Yb16  1  0.03742533  0.66666667  0.91666667  1
  Yb  Yb17  1  0.62924133  0.96257467  0.91666667  1
  N  N18  1  0.00000000  0.00000000  0.14551200  1
  N  N19  1  0.33333333  0.66666667  0.02115467  1
  N  N20  1  0.33333333  0.66666667  0.31217867  1
  N  N21  1  0.66666667  0.33333333  0.18782133  1
  N  N22  1  0.66666667  0.33333333  0.47884533  1
  N  N23  1  0.00000000  0.00000000  0.35448800  1
  N  N24  1  0.00000000  0.00000000  0.64551200  1
  N  N25  1  0.33333333  0.66666667  0.52115467  1
  N  N26  1  0.33333333  0.66666667  0.81217867  1
  N  N27  1  0.66666667  0.33333333  0.68782133  1
  N  N28  1  0.66666667  0.33333333  0.97884533  1
  N  N29  1  0.00000000  0.00000000  0.85448800  1
