# generated using pymatgen
data_Ni6OF11
_symmetry_space_group_name_H-M   'P 1'
_cell_length_a   9.11071400
_cell_length_b   6.62069400
_cell_length_c   7.35858267
_cell_angle_alpha   90.00000000
_cell_angle_beta   112.10530835
_cell_angle_gamma   90.00000000
_symmetry_Int_Tables_number   1
_chemical_formula_structural   Ni6OF11
_chemical_formula_sum   'Ni12 O2 F22'
_cell_volume   411.23740136
_cell_formula_units_Z   2
loop_
 _symmetry_equiv_pos_site_id
 _symmetry_equiv_pos_as_xyz
  1  'x, y, z'
loop_
 _atom_site_type_symbol
 _atom_site_label
 _atom_site_symmetry_multiplicity
 _atom_site_fract_x
 _atom_site_fract_y
 _atom_site_fract_z
 _atom_site_occupancy
  Ni  Ni0  1  0.83881200  0.49432400  0.83894200  1
  Ni  Ni1  1  0.83212800  0.49810300  0.33330500  1
  Ni  Ni2  1  0.16787200  0.49810300  0.66669500  1
  Ni  Ni3  1  0.16118800  0.49432400  0.16105800  1
  Ni  Ni4  1  0.00000000  0.99912900  0.50000000  1
  Ni  Ni5  1  0.00000000  0.00733500  0.00000000  1
  Ni  Ni6  1  0.33881200  0.99432400  0.83894200  1
  Ni  Ni7  1  0.33212800  0.99810300  0.33330500  1
  Ni  Ni8  1  0.66787200  0.99810300  0.66669500  1
  Ni  Ni9  1  0.66118800  0.99432400  0.16105800  1
  Ni  Ni10  1  0.50000000  0.49912900  0.50000000  1
  Ni  Ni11  1  0.50000000  0.50733500  0.00000000  1
  O  O12  1  0.00000000  0.30861200  0.00000000  1
  O  O13  1  0.50000000  0.80861200  0.00000000  1
  F  F14  1  0.16998650  0.19259050  0.67066100  1
  F  F15  1  0.83001350  0.19259050  0.32933900  1
  F  F16  1  0.60045700  0.50122100  0.29790300  1
  F  F17  1  0.93554900  0.50020300  0.63107100  1
  F  F18  1  0.26753850  0.50185150  0.96435700  1
  F  F19  1  0.39954300  0.50122100  0.70209700  1
  F  F20  1  0.73246150  0.50185150  0.03564300  1
  F  F21  1  0.06445100  0.50020300  0.36892900  1
  F  F22  1  0.83223750  0.80233450  0.33282400  1
  F  F23  1  0.16776250  0.80233450  0.66717600  1
  F  F24  1  0.00000000  0.70367000  0.00000000  1
  F  F25  1  0.66998650  0.69259050  0.67066100  1
  F  F26  1  0.33001350  0.69259050  0.32933900  1
  F  F27  1  0.10045700  0.00122100  0.29790300  1
  F  F28  1  0.43554900  0.00020300  0.63107100  1
  F  F29  1  0.76753850  0.00185150  0.96435700  1
  F  F30  1  0.89954300  0.00122100  0.70209700  1
  F  F31  1  0.23246150  0.00185150  0.03564300  1
  F  F32  1  0.56445100  0.00020300  0.36892900  1
  F  F33  1  0.33223750  0.30233450  0.33282400  1
  F  F34  1  0.66776250  0.30233450  0.66717600  1
  F  F35  1  0.50000000  0.20367000  0.00000000  1
