# generated using pymatgen
data_Fe10O9F11
_symmetry_space_group_name_H-M   'P 1'
_cell_length_a   6.53123800
_cell_length_b   7.09016600
_cell_length_c   15.35721011
_cell_angle_alpha   90.00000000
_cell_angle_beta   90.32634857
_cell_angle_gamma   90.00000000
_symmetry_Int_Tables_number   1
_chemical_formula_structural   Fe10O9F11
_chemical_formula_sum   'Fe20 O18 F22'
_cell_volume   711.14341758
_cell_formula_units_Z   2
loop_
 _symmetry_equiv_pos_site_id
 _symmetry_equiv_pos_as_xyz
  1  'x, y, z'
loop_
 _atom_site_type_symbol
 _atom_site_label
 _atom_site_symmetry_multiplicity
 _atom_site_fract_x
 _atom_site_fract_y
 _atom_site_fract_z
 _atom_site_occupancy
  Fe  Fe0  1  0.00626900  0.00014900  0.19683500  1
  Fe  Fe1  1  0.50000000  0.49944700  0.00000000  1
  Fe  Fe2  1  0.99373100  0.00014900  0.80316500  1
  Fe  Fe3  1  0.03143250  0.98913750  0.59595500  1
  Fe  Fe4  1  0.96856750  0.98913750  0.40404500  1
  Fe  Fe5  1  0.50137600  0.00011600  0.09540900  1
  Fe  Fe6  1  0.48873700  0.99437500  0.70971800  1
  Fe  Fe7  1  0.49862400  0.00011600  0.90459100  1
  Fe  Fe8  1  0.50000000  0.03880500  0.50000000  1
  Fe  Fe9  1  0.51126300  0.99437500  0.29028200  1
  Fe  Fe10  1  0.50626900  0.50014900  0.19683500  1
  Fe  Fe11  1  0.00000000  0.99944700  0.00000000  1
  Fe  Fe12  1  0.49373100  0.50014900  0.80316500  1
  Fe  Fe13  1  0.53143250  0.48913750  0.59595500  1
  Fe  Fe14  1  0.46856750  0.48913750  0.40404500  1
  Fe  Fe15  1  0.00137600  0.50011600  0.09540900  1
  Fe  Fe16  1  0.98873700  0.49437500  0.70971800  1
  Fe  Fe17  1  0.99862400  0.50011600  0.90459100  1
  Fe  Fe18  1  0.00000000  0.53880500  0.50000000  1
  Fe  Fe19  1  0.01126300  0.49437500  0.29028200  1
  O  O20  1  0.50000000  0.31261400  0.50000000  1
  O  O21  1  0.70793500  0.99831000  0.20037200  1
  O  O22  1  0.69605700  0.99997800  0.99971800  1
  O  O23  1  0.69838700  0.99864900  0.79675700  1
  O  O24  1  0.67754500  0.00020100  0.40020200  1
  O  O25  1  0.30161300  0.99864900  0.20324300  1
  O  O26  1  0.30394300  0.99997800  0.00028200  1
  O  O27  1  0.29206500  0.99831000  0.79962800  1
  O  O28  1  0.32245500  0.00020100  0.59979800  1
  O  O29  1  0.00000000  0.81261400  0.50000000  1
  O  O30  1  0.20793500  0.49831000  0.20037200  1
  O  O31  1  0.19605700  0.49997800  0.99971800  1
  O  O32  1  0.19838700  0.49864900  0.79675700  1
  O  O33  1  0.17754500  0.50020100  0.40020200  1
  O  O34  1  0.80161300  0.49864900  0.20324300  1
  O  O35  1  0.80394300  0.49997800  0.00028200  1
  O  O36  1  0.79206500  0.49831000  0.79962800  1
  O  O37  1  0.82245500  0.50020100  0.59979800  1
  F  F38  1  0.50315000  0.29671800  0.10760600  1
  F  F39  1  0.49685000  0.29671800  0.89239400  1
  F  F40  1  0.50202150  0.30744350  0.69555400  1
  F  F41  1  0.49797850  0.30744350  0.30444600  1
  F  F42  1  0.71160550  0.00555650  0.59888600  1
  F  F43  1  0.28839450  0.00555650  0.40111400  1
  F  F44  1  0.50285250  0.70280750  0.10759700  1
  F  F45  1  0.50284400  0.68701500  0.69359200  1
  F  F46  1  0.49714750  0.70280750  0.89240300  1
  F  F47  1  0.49715600  0.68701500  0.30640800  1
  F  F48  1  0.50000000  0.68822300  0.50000000  1
  F  F49  1  0.00315000  0.79671800  0.10760600  1
  F  F50  1  0.99685000  0.79671800  0.89239400  1
  F  F51  1  0.00202150  0.80744350  0.69555400  1
  F  F52  1  0.99797850  0.80744350  0.30444600  1
  F  F53  1  0.21160550  0.50555650  0.59888600  1
  F  F54  1  0.78839450  0.50555650  0.40111400  1
  F  F55  1  0.00285250  0.20280750  0.10759700  1
  F  F56  1  0.00284400  0.18701500  0.69359200  1
  F  F57  1  0.99714750  0.20280750  0.89240300  1
  F  F58  1  0.99715600  0.18701500  0.30640800  1
  F  F59  1  0.00000000  0.18822300  0.50000000  1
