# generated using pymatgen
data_KN3
_symmetry_space_group_name_H-M   'P 1'
_cell_length_a   6.22649600
_cell_length_b   6.22649600
_cell_length_c   7.28412000
_cell_angle_alpha   90.00000000
_cell_angle_beta   90.00000000
_cell_angle_gamma   90.00000000
_symmetry_Int_Tables_number   1
_chemical_formula_structural   KN3
_chemical_formula_sum   'K4 N12'
_cell_volume   282.39988707
_cell_formula_units_Z   4
loop_
 _symmetry_equiv_pos_site_id
 _symmetry_equiv_pos_as_xyz
  1  'x, y, z'
loop_
 _atom_site_type_symbol
 _atom_site_label
 _atom_site_symmetry_multiplicity
 _atom_site_fract_x
 _atom_site_fract_y
 _atom_site_fract_z
 _atom_site_occupancy
  K  K0  1  0.00000000  0.00000000  0.75000000  1
  K  K1  1  0.00000000  0.00000000  0.25000000  1
  K  K2  1  0.50000000  0.50000000  0.25000000  1
  K  K3  1  0.50000000  0.50000000  0.75000000  1
  N  N4  1  0.50000000  0.00000000  0.00000000  1
  N  N5  1  0.00000000  0.50000000  0.00000000  1
  N  N6  1  0.63488700  0.13488700  0.00000000  1
  N  N7  1  0.86511300  0.36511300  0.50000000  1
  N  N8  1  0.36511300  0.13488700  0.50000000  1
  N  N9  1  0.13488700  0.36511300  0.00000000  1
  N  N10  1  0.00000000  0.50000000  0.50000000  1
  N  N11  1  0.50000000  0.00000000  0.50000000  1
  N  N12  1  0.13488700  0.63488700  0.50000000  1
  N  N13  1  0.36511300  0.86511300  0.00000000  1
  N  N14  1  0.86511300  0.63488700  0.00000000  1
  N  N15  1  0.63488700  0.86511300  0.50000000  1
