# generated using pymatgen
data_Ca2SnHg
_symmetry_space_group_name_H-M   'P 1'
_cell_length_a   7.69777400
_cell_length_b   7.69777400
_cell_length_c   7.69777400
_cell_angle_alpha   90.00000000
_cell_angle_beta   90.00000000
_cell_angle_gamma   90.00000000
_symmetry_Int_Tables_number   1
_chemical_formula_structural   Ca2SnHg
_chemical_formula_sum   'Ca8 Sn4 Hg4'
_cell_volume   456.13717583
_cell_formula_units_Z   4
loop_
 _symmetry_equiv_pos_site_id
 _symmetry_equiv_pos_as_xyz
  1  'x, y, z'
loop_
 _atom_site_type_symbol
 _atom_site_label
 _atom_site_symmetry_multiplicity
 _atom_site_fract_x
 _atom_site_fract_y
 _atom_site_fract_z
 _atom_site_occupancy
  Ca  Ca0  1  0.25000000  0.25000000  0.75000000  1
  Ca  Ca1  1  0.25000000  0.75000000  0.75000000  1
  Ca  Ca2  1  0.25000000  0.75000000  0.25000000  1
  Ca  Ca3  1  0.25000000  0.25000000  0.25000000  1
  Ca  Ca4  1  0.75000000  0.25000000  0.25000000  1
  Ca  Ca5  1  0.75000000  0.75000000  0.25000000  1
  Ca  Ca6  1  0.75000000  0.75000000  0.75000000  1
  Ca  Ca7  1  0.75000000  0.25000000  0.75000000  1
  Sn  Sn8  1  0.00000000  0.00000000  0.00000000  1
  Sn  Sn9  1  0.00000000  0.50000000  0.50000000  1
  Sn  Sn10  1  0.50000000  0.00000000  0.50000000  1
  Sn  Sn11  1  0.50000000  0.50000000  0.00000000  1
  Hg  Hg12  1  0.50000000  0.00000000  0.00000000  1
  Hg  Hg13  1  0.50000000  0.50000000  0.50000000  1
  Hg  Hg14  1  0.00000000  0.00000000  0.50000000  1
  Hg  Hg15  1  0.00000000  0.50000000  0.00000000  1
