# generated using pymatgen
data_RbLiH12Se3N4
_symmetry_space_group_name_H-M   'P 1'
_cell_length_a   19.62752000
_cell_length_b   6.12826800
_cell_length_c   20.39810293
_cell_angle_alpha   90.00000000
_cell_angle_beta   111.95192179
_cell_angle_gamma   90.00000000
_symmetry_Int_Tables_number   1
_chemical_formula_structural   RbLiH12Se3N4
_chemical_formula_sum   'Rb8 Li8 H96 Se24 N32'
_cell_volume   2275.65214874
_cell_formula_units_Z   8
loop_
 _symmetry_equiv_pos_site_id
 _symmetry_equiv_pos_as_xyz
  1  'x, y, z'
loop_
 _atom_site_type_symbol
 _atom_site_label
 _atom_site_symmetry_multiplicity
 _atom_site_fract_x
 _atom_site_fract_y
 _atom_site_fract_z
 _atom_site_occupancy
  Rb  Rb0  1  0.81358550  0.98475650  0.23728800  1
  Rb  Rb1  1  0.68641450  0.48475650  0.26271200  1
  Rb  Rb2  1  0.18641450  0.01524350  0.76271200  1
  Rb  Rb3  1  0.31358550  0.51524350  0.73728800  1
  Rb  Rb4  1  0.31358550  0.48475650  0.23728800  1
  Rb  Rb5  1  0.18641450  0.98475650  0.26271200  1
  Rb  Rb6  1  0.68641450  0.51524350  0.76271200  1
  Rb  Rb7  1  0.81358550  0.01524350  0.73728800  1
  Li  Li8  1  0.10182500  0.09490700  0.95054800  1
  Li  Li9  1  0.89817500  0.09490700  0.54945200  1
  Li  Li10  1  0.89817500  0.90509300  0.04945200  1
  Li  Li11  1  0.10182500  0.90509300  0.45054800  1
  Li  Li12  1  0.60182500  0.59490700  0.95054800  1
  Li  Li13  1  0.39817500  0.59490700  0.54945200  1
  Li  Li14  1  0.39817500  0.40509300  0.04945200  1
  Li  Li15  1  0.60182500  0.40509300  0.45054800  1
  H  H16  1  0.98353800  0.85490600  0.33401300  1
  H  H17  1  0.01646200  0.85490600  0.16598700  1
  H  H18  1  0.01646200  0.14509400  0.66598700  1
  H  H19  1  0.98353800  0.14509400  0.83401300  1
  H  H20  1  0.03581550  0.02791750  0.31187200  1
  H  H21  1  0.96418450  0.02791750  0.18812800  1
  H  H22  1  0.96418450  0.97208250  0.68812800  1
  H  H23  1  0.03581550  0.97208250  0.81187200  1
  H  H24  1  0.21467350  0.86925950  0.92627600  1
  H  H25  1  0.28532650  0.36925950  0.57372400  1
  H  H26  1  0.78532650  0.13074050  0.07372400  1
  H  H27  1  0.71467350  0.63074050  0.42627600  1
  H  H28  1  0.74400900  0.50003100  0.00245100  1
  H  H29  1  0.75599100  0.00003100  0.49754900  1
  H  H30  1  0.25599100  0.49996900  0.99754900  1
  H  H31  1  0.24400900  0.99996900  0.50245100  1
  H  H32  1  0.12325300  0.47628600  0.43480400  1
  H  H33  1  0.87674700  0.47628600  0.06519600  1
  H  H34  1  0.87674700  0.52371400  0.56519600  1
  H  H35  1  0.12325300  0.52371400  0.93480400  1
  H  H36  1  0.22510200  0.13836700  0.92827200  1
  H  H37  1  0.27489800  0.63836700  0.57172800  1
  H  H38  1  0.77489800  0.86163300  0.07172800  1
  H  H39  1  0.72510200  0.36163300  0.42827200  1
  H  H40  1  0.59040900  0.60219600  0.07658000  1
  H  H41  1  0.90959100  0.10219600  0.42342000  1
  H  H42  1  0.40959100  0.39780400  0.92342000  1
  H  H43  1  0.09040900  0.89780400  0.57658000  1
  H  H44  1  0.98290600  0.12008100  0.35138400  1
  H  H45  1  0.01709400  0.12008100  0.14861600  1
  H  H46  1  0.01709400  0.87991900  0.64861600  1
  H  H47  1  0.98290600  0.87991900  0.85138400  1
  H  H48  1  0.54272600  0.38332000  0.04227100  1
  H  H49  1  0.95727400  0.88332000  0.45772900  1
  H  H50  1  0.45727400  0.61668000  0.95772900  1
  H  H51  1  0.04272600  0.11668000  0.54227100  1
  H  H52  1  0.03980350  0.49491050  0.43520200  1
  H  H53  1  0.96019650  0.49491050  0.06479800  1
  H  H54  1  0.96019650  0.50508950  0.56479800  1
  H  H55  1  0.03980350  0.50508950  0.93520200  1
  H  H56  1  0.63169350  0.37305150  0.07493700  1
  H  H57  1  0.86830650  0.87305150  0.42506300  1
  H  H58  1  0.36830650  0.62694850  0.92506300  1
  H  H59  1  0.13169350  0.12694850  0.57493700  1
  H  H60  1  0.11171850  0.48538350  0.51022000  1
  H  H61  1  0.38828150  0.98538350  0.98978000  1
  H  H62  1  0.88828150  0.51461650  0.48978000  1
  H  H63  1  0.61171850  0.01461650  0.01022000  1
  H  H64  1  0.48353800  0.35490600  0.33401300  1
  H  H65  1  0.51646200  0.35490600  0.16598700  1
  H  H66  1  0.51646200  0.64509400  0.66598700  1
  H  H67  1  0.48353800  0.64509400  0.83401300  1
  H  H68  1  0.53581550  0.52791750  0.31187200  1
  H  H69  1  0.46418450  0.52791750  0.18812800  1
  H  H70  1  0.46418450  0.47208250  0.68812800  1
  H  H71  1  0.53581550  0.47208250  0.81187200  1
  H  H72  1  0.71467350  0.36925950  0.92627600  1
  H  H73  1  0.78532650  0.86925950  0.57372400  1
  H  H74  1  0.28532650  0.63074050  0.07372400  1
  H  H75  1  0.21467350  0.13074050  0.42627600  1
  H  H76  1  0.24400900  0.00003100  0.00245100  1
  H  H77  1  0.25599100  0.50003100  0.49754900  1
  H  H78  1  0.75599100  0.99996900  0.99754900  1
  H  H79  1  0.74400900  0.49996900  0.50245100  1
  H  H80  1  0.62325300  0.97628600  0.43480400  1
  H  H81  1  0.37674700  0.97628600  0.06519600  1
  H  H82  1  0.37674700  0.02371400  0.56519600  1
  H  H83  1  0.62325300  0.02371400  0.93480400  1
  H  H84  1  0.72510200  0.63836700  0.92827200  1
  H  H85  1  0.77489800  0.13836700  0.57172800  1
  H  H86  1  0.27489800  0.36163300  0.07172800  1
  H  H87  1  0.22510200  0.86163300  0.42827200  1
  H  H88  1  0.09040900  0.10219600  0.07658000  1
  H  H89  1  0.40959100  0.60219600  0.42342000  1
  H  H90  1  0.90959100  0.89780400  0.92342000  1
  H  H91  1  0.59040900  0.39780400  0.57658000  1
  H  H92  1  0.48290600  0.62008100  0.35138400  1
  H  H93  1  0.51709400  0.62008100  0.14861600  1
  H  H94  1  0.51709400  0.37991900  0.64861600  1
  H  H95  1  0.48290600  0.37991900  0.85138400  1
  H  H96  1  0.04272600  0.88332000  0.04227100  1
  H  H97  1  0.45727400  0.38332000  0.45772900  1
  H  H98  1  0.95727400  0.11668000  0.95772900  1
  H  H99  1  0.54272600  0.61668000  0.54227100  1
  H  H100  1  0.53980350  0.99491050  0.43520200  1
  H  H101  1  0.46019650  0.99491050  0.06479800  1
  H  H102  1  0.46019650  0.00508950  0.56479800  1
  H  H103  1  0.53980350  0.00508950  0.93520200  1
  H  H104  1  0.13169350  0.87305150  0.07493700  1
  H  H105  1  0.36830650  0.37305150  0.42506300  1
  H  H106  1  0.86830650  0.12694850  0.92506300  1
  H  H107  1  0.63169350  0.62694850  0.57493700  1
  H  H108  1  0.61171850  0.98538350  0.51022000  1
  H  H109  1  0.88828150  0.48538350  0.98978000  1
  H  H110  1  0.38828150  0.01461650  0.48978000  1
  H  H111  1  0.11171850  0.51461650  0.01022000  1
  Se  Se112  1  0.90324600  0.48408900  0.22830100  1
  Se  Se113  1  0.09675400  0.48408900  0.27169900  1
  Se  Se114  1  0.09675400  0.51591100  0.77169900  1
  Se  Se115  1  0.90324600  0.51591100  0.72830100  1
  Se  Se116  1  0.78021750  0.48898950  0.14311100  1
  Se  Se117  1  0.71978250  0.98898950  0.35688900  1
  Se  Se118  1  0.21978250  0.51101050  0.85688900  1
  Se  Se119  1  0.28021750  0.01101050  0.64311100  1
  Se  Se120  1  0.89349850  0.47071050  0.34138100  1
  Se  Se121  1  0.60650150  0.97071050  0.15861900  1
  Se  Se122  1  0.10650150  0.52928950  0.65861900  1
  Se  Se123  1  0.39349850  0.02928950  0.84138100  1
  Se  Se124  1  0.40324600  0.98408900  0.22830100  1
  Se  Se125  1  0.59675400  0.98408900  0.27169900  1
  Se  Se126  1  0.59675400  0.01591100  0.77169900  1
  Se  Se127  1  0.40324600  0.01591100  0.72830100  1
  Se  Se128  1  0.28021750  0.98898950  0.14311100  1
  Se  Se129  1  0.21978250  0.48898950  0.35688900  1
  Se  Se130  1  0.71978250  0.01101050  0.85688900  1
  Se  Se131  1  0.78021750  0.51101050  0.64311100  1
  Se  Se132  1  0.39349850  0.97071050  0.34138100  1
  Se  Se133  1  0.10650150  0.47071050  0.15861900  1
  Se  Se134  1  0.60650150  0.02928950  0.65861900  1
  Se  Se135  1  0.89349850  0.52928950  0.84138100  1
  N  N136  1  0.01636300  0.99090000  0.35068500  1
  N  N137  1  0.98363700  0.99090000  0.14931500  1
  N  N138  1  0.98363700  0.00910000  0.64931500  1
  N  N139  1  0.01636300  0.00910000  0.85068500  1
  N  N140  1  0.20766350  0.01034550  0.95085000  1
  N  N141  1  0.79233650  0.01034550  0.54915000  1
  N  N142  1  0.79233650  0.98965450  0.04915000  1
  N  N143  1  0.20766350  0.98965450  0.45085000  1
  N  N144  1  0.58852800  0.46983400  0.04466300  1
  N  N145  1  0.91147200  0.96983400  0.45533700  1
  N  N146  1  0.41147200  0.53016600  0.95533700  1
  N  N147  1  0.08852800  0.03016600  0.54466300  1
  N  N148  1  0.09293300  0.55014000  0.46024300  1
  N  N149  1  0.90706700  0.55014000  0.03975700  1
  N  N150  1  0.90706700  0.44986000  0.53975700  1
  N  N151  1  0.09293300  0.44986000  0.96024300  1
  N  N152  1  0.51636300  0.49090000  0.35068500  1
  N  N153  1  0.48363700  0.49090000  0.14931500  1
  N  N154  1  0.48363700  0.50910000  0.64931500  1
  N  N155  1  0.51636300  0.50910000  0.85068500  1
  N  N156  1  0.70766350  0.51034550  0.95085000  1
  N  N157  1  0.29233650  0.51034550  0.54915000  1
  N  N158  1  0.29233650  0.48965450  0.04915000  1
  N  N159  1  0.70766350  0.48965450  0.45085000  1
  N  N160  1  0.08852800  0.96983400  0.04466300  1
  N  N161  1  0.41147200  0.46983400  0.45533700  1
  N  N162  1  0.91147200  0.03016600  0.95533700  1
  N  N163  1  0.58852800  0.53016600  0.54466300  1
  N  N164  1  0.59293300  0.05014000  0.46024300  1
  N  N165  1  0.40706700  0.05014000  0.03975700  1
  N  N166  1  0.40706700  0.94986000  0.53975700  1
  N  N167  1  0.59293300  0.94986000  0.96024300  1
