# generated using pymatgen
data_Ge7H8N2O15
_symmetry_space_group_name_H-M   'P 1'
_cell_length_a   13.21747200
_cell_length_b   7.36824400
_cell_length_c   15.42241548
_cell_angle_alpha   90.00000000
_cell_angle_beta   103.81039001
_cell_angle_gamma   90.00000000
_symmetry_Int_Tables_number   1
_chemical_formula_structural   Ge7H8N2O15
_chemical_formula_sum   'Ge28 H32 N8 O60'
_cell_volume   1458.56144664
_cell_formula_units_Z   4
loop_
 _symmetry_equiv_pos_site_id
 _symmetry_equiv_pos_as_xyz
  1  'x, y, z'
loop_
 _atom_site_type_symbol
 _atom_site_label
 _atom_site_symmetry_multiplicity
 _atom_site_fract_x
 _atom_site_fract_y
 _atom_site_fract_z
 _atom_site_occupancy
  Ge  Ge0  1  0.95607900  0.39401900  0.64714700  1
  Ge  Ge1  1  0.95607900  0.60598100  0.14714700  1
  Ge  Ge2  1  0.81600100  0.45026400  0.87593800  1
  Ge  Ge3  1  0.74111100  0.52434300  0.66338700  1
  Ge  Ge4  1  0.75888900  0.02434300  0.83661300  1
  Ge  Ge5  1  0.68399900  0.95026400  0.62406200  1
  Ge  Ge6  1  0.75000000  0.75000000  0.00000000  1
  Ge  Ge7  1  0.81600100  0.54973600  0.37593800  1
  Ge  Ge8  1  0.74111100  0.47565700  0.16338700  1
  Ge  Ge9  1  0.75888900  0.97565700  0.33661300  1
  Ge  Ge10  1  0.68399900  0.04973600  0.12406200  1
  Ge  Ge11  1  0.75000000  0.25000000  0.50000000  1
  Ge  Ge12  1  0.54392100  0.89401900  0.85285300  1
  Ge  Ge13  1  0.54392100  0.10598100  0.35285300  1
  Ge  Ge14  1  0.45607900  0.89401900  0.64714700  1
  Ge  Ge15  1  0.45607900  0.10598100  0.14714700  1
  Ge  Ge16  1  0.31600100  0.95026400  0.87593800  1
  Ge  Ge17  1  0.24111100  0.02434300  0.66338700  1
  Ge  Ge18  1  0.25888900  0.52434300  0.83661300  1
  Ge  Ge19  1  0.18399900  0.45026400  0.62406200  1
  Ge  Ge20  1  0.25000000  0.25000000  0.00000000  1
  Ge  Ge21  1  0.31600100  0.04973600  0.37593800  1
  Ge  Ge22  1  0.24111100  0.97565700  0.16338700  1
  Ge  Ge23  1  0.25888900  0.47565700  0.33661300  1
  Ge  Ge24  1  0.18399900  0.54973600  0.12406200  1
  Ge  Ge25  1  0.25000000  0.75000000  0.50000000  1
  Ge  Ge26  1  0.04392100  0.39401900  0.85285300  1
  Ge  Ge27  1  0.04392100  0.60598100  0.35285300  1
  H  H28  1  0.93815650  0.00877550  0.58893800  1
  H  H29  1  0.93794150  0.78613950  0.62491000  1
  H  H30  1  0.89924450  0.83908950  0.51706800  1
  H  H31  1  0.97301950  0.84865450  0.93070500  1
  H  H32  1  0.93815650  0.99122450  0.08893800  1
  H  H33  1  0.93794150  0.21386050  0.12491000  1
  H  H34  1  0.89924450  0.16091050  0.01706800  1
  H  H35  1  0.97301950  0.15134550  0.43070500  1
  H  H36  1  0.52698050  0.34865450  0.56929500  1
  H  H37  1  0.60075550  0.33908950  0.98293200  1
  H  H38  1  0.56205850  0.28613950  0.87509000  1
  H  H39  1  0.56184350  0.50877550  0.91106200  1
  H  H40  1  0.52698050  0.65134550  0.06929500  1
  H  H41  1  0.60075550  0.66091050  0.48293200  1
  H  H42  1  0.56205850  0.71386050  0.37509000  1
  H  H43  1  0.56184350  0.49122450  0.41106200  1
  H  H44  1  0.43815650  0.50877550  0.58893800  1
  H  H45  1  0.43794150  0.28613950  0.62491000  1
  H  H46  1  0.39924450  0.33908950  0.51706800  1
  H  H47  1  0.47301950  0.34865450  0.93070500  1
  H  H48  1  0.43815650  0.49122450  0.08893800  1
  H  H49  1  0.43794150  0.71386050  0.12491000  1
  H  H50  1  0.39924450  0.66091050  0.01706800  1
  H  H51  1  0.47301950  0.65134550  0.43070500  1
  H  H52  1  0.02698050  0.84865450  0.56929500  1
  H  H53  1  0.10075550  0.83908950  0.98293200  1
  H  H54  1  0.06205850  0.78613950  0.87509000  1
  H  H55  1  0.06184350  0.00877550  0.91106200  1
  H  H56  1  0.02698050  0.15134550  0.06929500  1
  H  H57  1  0.10075550  0.16091050  0.48293200  1
  H  H58  1  0.06205850  0.21386050  0.37509000  1
  H  H59  1  0.06184350  0.99122450  0.41106200  1
  N  N60  1  0.95200350  0.87181250  0.57619200  1
  N  N61  1  0.95200350  0.12818750  0.07619200  1
  N  N62  1  0.54799650  0.37181250  0.92380800  1
  N  N63  1  0.54799650  0.62818750  0.42380800  1
  N  N64  1  0.45200350  0.37181250  0.57619200  1
  N  N65  1  0.45200350  0.62818750  0.07619200  1
  N  N66  1  0.04799650  0.87181250  0.92380800  1
  N  N67  1  0.04799650  0.12818750  0.42380800  1
  O  O68  1  0.89504750  0.23503950  0.56872800  1
  O  O69  1  0.94504450  0.52719350  0.88247200  1
  O  O70  1  0.87424800  0.57695000  0.66738500  1
  O  O71  1  0.89504750  0.76496050  0.06872800  1
  O  O72  1  0.83977450  0.20769850  0.88566600  1
  O  O73  1  0.73196600  0.00561000  0.53162900  1
  O  O74  1  0.77603800  0.99103300  0.72674300  1
  O  O75  1  0.94504450  0.47280650  0.38247200  1
  O  O76  1  0.80176450  0.82951350  0.89973100  1
  O  O77  1  0.87424800  0.42305000  0.16738500  1
  O  O78  1  0.69823550  0.32951350  0.60026900  1
  O  O79  1  0.72396200  0.49103300  0.77325700  1
  O  O80  1  0.76803400  0.50561000  0.96837100  1
  O  O81  1  0.66022550  0.70769850  0.61433400  1
  O  O82  1  0.83977450  0.79230150  0.38566600  1
  O  O83  1  0.73196600  0.99439000  0.03162900  1
  O  O84  1  0.77603800  0.00896700  0.22674300  1
  O  O85  1  0.80176450  0.17048650  0.39973100  1
  O  O86  1  0.62575200  0.07695000  0.83261500  1
  O  O87  1  0.69823550  0.67048650  0.10026900  1
  O  O88  1  0.55495550  0.02719350  0.61752800  1
  O  O89  1  0.72396200  0.50896700  0.27325700  1
  O  O90  1  0.76803400  0.49439000  0.46837100  1
  O  O91  1  0.66022550  0.29230150  0.11433400  1
  O  O92  1  0.60495250  0.73503950  0.93127200  1
  O  O93  1  0.00000000  0.27622300  0.75000000  1
  O  O94  1  0.62575200  0.92305000  0.33261500  1
  O  O95  1  0.55495550  0.97280650  0.11752800  1
  O  O96  1  0.60495250  0.26496050  0.43127200  1
  O  O97  1  0.00000000  0.72377700  0.25000000  1
  O  O98  1  0.39504750  0.73503950  0.56872800  1
  O  O99  1  0.44504450  0.02719350  0.88247200  1
  O  O100  1  0.37424800  0.07695000  0.66738500  1
  O  O101  1  0.39504750  0.26496050  0.06872800  1
  O  O102  1  0.33977450  0.70769850  0.88566600  1
  O  O103  1  0.23196600  0.50561000  0.53162900  1
  O  O104  1  0.27603800  0.49103300  0.72674300  1
  O  O105  1  0.44504450  0.97280650  0.38247200  1
  O  O106  1  0.30176450  0.32951350  0.89973100  1
  O  O107  1  0.37424800  0.92305000  0.16738500  1
  O  O108  1  0.19823550  0.82951350  0.60026900  1
  O  O109  1  0.22396200  0.99103300  0.77325700  1
  O  O110  1  0.26803400  0.00561000  0.96837100  1
  O  O111  1  0.16022550  0.20769850  0.61433400  1
  O  O112  1  0.33977450  0.29230150  0.38566600  1
  O  O113  1  0.23196600  0.49439000  0.03162900  1
  O  O114  1  0.27603800  0.50896700  0.22674300  1
  O  O115  1  0.30176450  0.67048650  0.39973100  1
  O  O116  1  0.12575200  0.57695000  0.83261500  1
  O  O117  1  0.19823550  0.17048650  0.10026900  1
  O  O118  1  0.05495550  0.52719350  0.61752800  1
  O  O119  1  0.22396200  0.00896700  0.27325700  1
  O  O120  1  0.26803400  0.99439000  0.46837100  1
  O  O121  1  0.16022550  0.79230150  0.11433400  1
  O  O122  1  0.10495250  0.23503950  0.93127200  1
  O  O123  1  0.50000000  0.77622300  0.75000000  1
  O  O124  1  0.12575200  0.42305000  0.33261500  1
  O  O125  1  0.05495550  0.47280650  0.11752800  1
  O  O126  1  0.10495250  0.76496050  0.43127200  1
  O  O127  1  0.50000000  0.22377700  0.25000000  1
