# generated using pymatgen
data_Sm3SiAgS7
_symmetry_space_group_name_H-M   'P 1'
_cell_length_a   10.18990623
_cell_length_b   10.18990623
_cell_length_c   5.75705000
_cell_angle_alpha   90.00000000
_cell_angle_beta   90.00000000
_cell_angle_gamma   120.00000000
_symmetry_Int_Tables_number   1
_chemical_formula_structural   Sm3SiAgS7
_chemical_formula_sum   'Sm6 Si2 Ag2 S14'
_cell_volume   517.69146919
_cell_formula_units_Z   2
loop_
 _symmetry_equiv_pos_site_id
 _symmetry_equiv_pos_as_xyz
  1  'x, y, z'
loop_
 _atom_site_type_symbol
 _atom_site_label
 _atom_site_symmetry_multiplicity
 _atom_site_fract_x
 _atom_site_fract_y
 _atom_site_fract_z
 _atom_site_occupancy
  Sm  Sm0  1  0.35995900  0.23339400  0.74356700  1
  Sm  Sm1  1  0.64004100  0.76660600  0.24356700  1
  Sm  Sm2  1  0.76660600  0.12656500  0.74356700  1
  Sm  Sm3  1  0.87343500  0.64004100  0.74356700  1
  Sm  Sm4  1  0.12656500  0.35995900  0.24356700  1
  Sm  Sm5  1  0.23339400  0.87343500  0.24356700  1
  Si  Si6  1  0.66666667  0.33333333  0.15623100  1
  Si  Si7  1  0.33333333  0.66666667  0.65623100  1
  Ag  Ag8  1  0.00000000  0.00000000  0.83927100  1
  Ag  Ag9  1  0.00000000  0.00000000  0.33927100  1
  S  S10  1  0.66666667  0.33333333  0.52405000  1
  S  S11  1  0.33333333  0.66666667  0.02405000  1
  S  S12  1  0.52433100  0.11252400  0.00826100  1
  S  S13  1  0.47566900  0.88747600  0.50826100  1
  S  S14  1  0.88747600  0.41180700  0.00826100  1
  S  S15  1  0.58819300  0.47566900  0.00826100  1
  S  S16  1  0.41180700  0.52433100  0.50826100  1
  S  S17  1  0.11252400  0.58819300  0.50826100  1
  S  S18  1  0.27131900  0.17487600  0.26701400  1
  S  S19  1  0.72868100  0.82512400  0.76701400  1
  S  S20  1  0.82512400  0.09644300  0.26701400  1
  S  S21  1  0.90355700  0.72868100  0.26701400  1
  S  S22  1  0.09644300  0.27131900  0.76701400  1
  S  S23  1  0.17487600  0.90355700  0.76701400  1
