# generated using pymatgen
data_Rb2PtSe2
_symmetry_space_group_name_H-M   'P 1'
_cell_length_a   3.84958600
_cell_length_b   7.69095600
_cell_length_c   10.33831600
_cell_angle_alpha   90.00000000
_cell_angle_beta   90.00000000
_cell_angle_gamma   90.00000000
_symmetry_Int_Tables_number   1
_chemical_formula_structural   Rb2PtSe2
_chemical_formula_sum   'Rb4 Pt2 Se4'
_cell_volume   306.08648609
_cell_formula_units_Z   2
loop_
 _symmetry_equiv_pos_site_id
 _symmetry_equiv_pos_as_xyz
  1  'x, y, z'
loop_
 _atom_site_type_symbol
 _atom_site_label
 _atom_site_symmetry_multiplicity
 _atom_site_fract_x
 _atom_site_fract_y
 _atom_site_fract_z
 _atom_site_occupancy
  Rb  Rb0  1  0.00000000  0.50000000  0.80203300  1
  Rb  Rb1  1  0.00000000  0.50000000  0.19796700  1
  Rb  Rb2  1  0.50000000  0.00000000  0.30203300  1
  Rb  Rb3  1  0.50000000  0.00000000  0.69796700  1
  Pt  Pt4  1  0.00000000  0.00000000  0.00000000  1
  Pt  Pt5  1  0.50000000  0.50000000  0.50000000  1
  Se  Se6  1  0.50000000  0.78880300  0.00000000  1
  Se  Se7  1  0.50000000  0.21119700  0.00000000  1
  Se  Se8  1  0.00000000  0.28880300  0.50000000  1
  Se  Se9  1  0.00000000  0.71119700  0.50000000  1
