# generated using pymatgen
data_K2ZnH4(I2O7)2
_symmetry_space_group_name_H-M   'P 1'
_cell_length_a   14.01490600
_cell_length_b   7.78372400
_cell_length_c   8.35483911
_cell_angle_alpha   90.00000000
_cell_angle_beta   126.07823458
_cell_angle_gamma   90.00000000
_symmetry_Int_Tables_number   1
_chemical_formula_structural   K2ZnH4(I2O7)2
_chemical_formula_sum   'K4 Zn2 H8 I8 O28'
_cell_volume   736.61725624
_cell_formula_units_Z   2
loop_
 _symmetry_equiv_pos_site_id
 _symmetry_equiv_pos_as_xyz
  1  'x, y, z'
loop_
 _atom_site_type_symbol
 _atom_site_label
 _atom_site_symmetry_multiplicity
 _atom_site_fract_x
 _atom_site_fract_y
 _atom_site_fract_z
 _atom_site_occupancy
  K  K0  1  0.00000000  0.02426200  0.00000000  1
  K  K1  1  0.00000000  0.50005900  0.00000000  1
  K  K2  1  0.50000000  0.52426200  0.00000000  1
  K  K3  1  0.50000000  0.00005900  0.00000000  1
  Zn  Zn4  1  0.50000000  0.45857900  0.50000000  1
  Zn  Zn5  1  0.00000000  0.95857900  0.50000000  1
  H  H6  1  0.45323150  0.12366250  0.37439100  1
  H  H7  1  0.54791800  0.79106900  0.47100900  1
  H  H8  1  0.45208200  0.79106900  0.52899100  1
  H  H9  1  0.54676850  0.12366250  0.62560900  1
  H  H10  1  0.95323150  0.62366250  0.37439100  1
  H  H11  1  0.04791800  0.29106900  0.47100900  1
  H  H12  1  0.95208200  0.29106900  0.52899100  1
  H  H13  1  0.04676850  0.62366250  0.62560900  1
  I  I14  1  0.26211950  0.26654850  0.01656200  1
  I  I15  1  0.72388650  0.28124850  0.48326700  1
  I  I16  1  0.27611350  0.28124850  0.51673300  1
  I  I17  1  0.73788050  0.26654850  0.98343800  1
  I  I18  1  0.76211950  0.76654850  0.01656200  1
  I  I19  1  0.22388650  0.78124850  0.48326700  1
  I  I20  1  0.77611350  0.78124850  0.51673300  1
  I  I21  1  0.23788050  0.76654850  0.98343800  1
  O  O22  1  0.35911300  0.07700600  0.13514400  1
  O  O23  1  0.18374300  0.25778600  0.13117200  1
  O  O24  1  0.37506400  0.43235200  0.16858700  1
  O  O25  1  0.16249750  0.76642450  0.21922200  1
  O  O26  1  0.63252050  0.88065050  0.41361500  1
  O  O27  1  0.64204700  0.47739700  0.46554800  1
  O  O28  1  0.50000000  0.71953000  0.50000000  1
  O  O29  1  0.50000000  0.19307300  0.50000000  1
  O  O30  1  0.35795300  0.47739700  0.53445200  1
  O  O31  1  0.36747950  0.88065050  0.58638500  1
  O  O32  1  0.83750250  0.76642450  0.78077800  1
  O  O33  1  0.62493600  0.43235200  0.83141300  1
  O  O34  1  0.81625700  0.25778600  0.86882800  1
  O  O35  1  0.64088700  0.07700600  0.86485600  1
  O  O36  1  0.85911300  0.57700600  0.13514400  1
  O  O37  1  0.68374300  0.75778600  0.13117200  1
  O  O38  1  0.87506400  0.93235200  0.16858700  1
  O  O39  1  0.66249750  0.26642450  0.21922200  1
  O  O40  1  0.13252050  0.38065050  0.41361500  1
  O  O41  1  0.14204700  0.97739700  0.46554800  1
  O  O42  1  0.00000000  0.21953000  0.50000000  1
  O  O43  1  0.00000000  0.69307300  0.50000000  1
  O  O44  1  0.85795300  0.97739700  0.53445200  1
  O  O45  1  0.86747950  0.38065050  0.58638500  1
  O  O46  1  0.33750250  0.26642450  0.78077800  1
  O  O47  1  0.12493600  0.93235200  0.83141300  1
  O  O48  1  0.31625700  0.75778600  0.86882800  1
  O  O49  1  0.14088700  0.57700600  0.86485600  1
