# generated using pymatgen
data_Cr4OF11
_symmetry_space_group_name_H-M   'P 1'
_cell_length_a   5.07503602
_cell_length_b   5.34084548
_cell_length_c   16.94070454
_cell_angle_alpha   88.95706114
_cell_angle_beta   97.99832558
_cell_angle_gamma   117.91799878
_symmetry_Int_Tables_number   1
_chemical_formula_structural   Cr4OF11
_chemical_formula_sum   'Cr8 O2 F22'
_cell_volume   401.21212526
_cell_formula_units_Z   2
loop_
 _symmetry_equiv_pos_site_id
 _symmetry_equiv_pos_as_xyz
  1  'x, y, z'
loop_
 _atom_site_type_symbol
 _atom_site_label
 _atom_site_symmetry_multiplicity
 _atom_site_fract_x
 _atom_site_fract_y
 _atom_site_fract_z
 _atom_site_occupancy
  Cr  Cr0  1  0.74107300  0.38707200  0.12805200  1
  Cr  Cr1  1  0.75193900  0.87127000  0.62473200  1
  Cr  Cr2  1  0.50064700  0.24903100  0.74993500  1
  Cr  Cr3  1  0.50510900  0.74319700  0.24724600  1
  Cr  Cr4  1  0.24427100  0.13200900  0.37739800  1
  Cr  Cr5  1  0.25008200  0.62558300  0.87522200  1
  Cr  Cr6  1  0.00691500  0.48881100  0.49572900  1
  Cr  Cr7  1  0.99890800  0.00296100  0.00109700  1
  O  O8  1  0.06431900  0.34126100  0.40709200  1
  O  O9  1  0.56447000  0.59380500  0.15751200  1
  F  F10  1  0.43425500  0.21632100  0.03405800  1
  F  F11  1  0.50755700  0.06342900  0.18798200  1
  F  F12  1  0.99778900  0.18658300  0.56237100  1
  F  F13  1  0.99112600  0.68663900  0.06304000  1
  F  F14  1  0.06499000  0.03265000  0.71729800  1
  F  F15  1  0.06654000  0.53326200  0.21798300  1
  F  F16  1  0.43775500  0.40640200  0.84365900  1
  F  F17  1  0.43051000  0.91042100  0.34009200  1
  F  F18  1  0.43509000  0.71613000  0.53196300  1
  F  F19  1  0.93119500  0.16362200  0.09339100  1
  F  F20  1  0.50634500  0.56294500  0.68783900  1
  F  F21  1  0.49493100  0.43656400  0.31314200  1
  F  F22  1  0.06292800  0.84448500  0.90732200  1
  F  F23  1  0.56393400  0.09123600  0.65633600  1
  F  F24  1  0.56818800  0.28292100  0.46800800  1
  F  F25  1  0.93557100  0.46637300  0.78251700  1
  F  F26  1  0.93571500  0.65360300  0.58966100  1
  F  F27  1  0.93492300  0.96614700  0.28344500  1
  F  F28  1  0.00552400  0.31401500  0.93785900  1
  F  F29  1  0.00811100  0.81129000  0.43818500  1
  F  F30  1  0.49467000  0.93595000  0.81213700  1
  F  F31  1  0.56462200  0.78401300  0.96769800  1
