# generated using pymatgen
data_LiFe4(BO3)4
_symmetry_space_group_name_H-M   'P 1'
_cell_length_a   5.31760900
_cell_length_b   9.03237900
_cell_length_c   10.27883765
_cell_angle_alpha   90.00000000
_cell_angle_beta   90.36066659
_cell_angle_gamma   90.00000000
_symmetry_Int_Tables_number   1
_chemical_formula_structural   LiFe4(BO3)4
_chemical_formula_sum   'Li2 Fe8 B8 O24'
_cell_volume   493.68957350
_cell_formula_units_Z   2
loop_
 _symmetry_equiv_pos_site_id
 _symmetry_equiv_pos_as_xyz
  1  'x, y, z'
loop_
 _atom_site_type_symbol
 _atom_site_label
 _atom_site_symmetry_multiplicity
 _atom_site_fract_x
 _atom_site_fract_y
 _atom_site_fract_z
 _atom_site_occupancy
  Li  Li0  1  0.64382200  0.00722900  0.17117000  1
  Li  Li1  1  0.64382200  0.99277100  0.67117000  1
  Fe  Fe2  1  0.86202200  0.16819100  0.88249600  1
  Fe  Fe3  1  0.15688800  0.17241900  0.62868700  1
  Fe  Fe4  1  0.65979000  0.34025600  0.12711100  1
  Fe  Fe5  1  0.33694400  0.33212300  0.37478700  1
  Fe  Fe6  1  0.65979000  0.65974400  0.62711100  1
  Fe  Fe7  1  0.86202200  0.83180900  0.38249600  1
  Fe  Fe8  1  0.33694400  0.66787700  0.87478700  1
  Fe  Fe9  1  0.15688800  0.82758100  0.12868700  1
  B  B10  1  0.83095800  0.17393200  0.37192100  1
  B  B11  1  0.66472400  0.32397500  0.62371700  1
  B  B12  1  0.16514000  0.16452500  0.13308600  1
  B  B13  1  0.35105000  0.33447800  0.87633600  1
  B  B14  1  0.66472400  0.67602500  0.12371700  1
  B  B15  1  0.35105000  0.66552200  0.37633600  1
  B  B16  1  0.83095800  0.82606800  0.87192100  1
  B  B17  1  0.16514000  0.83547500  0.63308600  1
  O  O18  1  0.74023100  0.03557500  0.35560400  1
  O  O19  1  0.91324600  0.17790800  0.09547200  1
  O  O20  1  0.28187100  0.02828200  0.12976600  1
  O  O21  1  0.79616800  0.19701700  0.66538900  1
  O  O22  1  0.69399400  0.29658300  0.32519300  1
  O  O23  1  0.22439700  0.21580800  0.81692800  1
  O  O24  1  0.06384000  0.20093000  0.43208000  1
  O  O25  1  0.57713600  0.30786600  0.94063600  1
  O  O26  1  0.75803600  0.46114400  0.63708200  1
  O  O27  1  0.42806000  0.29914400  0.56715100  1
  O  O28  1  0.29829800  0.28921800  0.17528000  1
  O  O29  1  0.75803600  0.53885600  0.13708200  1
  O  O30  1  0.24521600  0.47117600  0.87226800  1
  O  O31  1  0.69399400  0.70341700  0.82519300  1
  O  O32  1  0.57713600  0.69213400  0.44063600  1
  O  O33  1  0.24521600  0.52882400  0.37226800  1
  O  O34  1  0.42806000  0.70085600  0.06715100  1
  O  O35  1  0.91324600  0.82209200  0.59547200  1
  O  O36  1  0.79616800  0.80298300  0.16538900  1
  O  O37  1  0.29829800  0.71078200  0.67528000  1
  O  O38  1  0.22439700  0.78419200  0.31692800  1
  O  O39  1  0.74023100  0.96442500  0.85560400  1
  O  O40  1  0.06384000  0.79907000  0.93208000  1
  O  O41  1  0.28187100  0.97171800  0.62976600  1
