# generated using pymatgen
data_NbC2NCl8
_symmetry_space_group_name_H-M   'P 1'
_cell_length_a   8.12622800
_cell_length_b   9.26539400
_cell_length_c   16.75697400
_cell_angle_alpha   90.00000000
_cell_angle_beta   90.00000000
_cell_angle_gamma   90.00000000
_symmetry_Int_Tables_number   1
_chemical_formula_structural   NbC2NCl8
_chemical_formula_sum   'Nb4 C8 N4 Cl32'
_cell_volume   1261.67788590
_cell_formula_units_Z   4
loop_
 _symmetry_equiv_pos_site_id
 _symmetry_equiv_pos_as_xyz
  1  'x, y, z'
loop_
 _atom_site_type_symbol
 _atom_site_label
 _atom_site_symmetry_multiplicity
 _atom_site_fract_x
 _atom_site_fract_y
 _atom_site_fract_z
 _atom_site_occupancy
  Nb  Nb0  1  0.50000000  0.09499700  0.62567300  1
  Nb  Nb1  1  0.50000000  0.90500300  0.12567300  1
  Nb  Nb2  1  0.00000000  0.59499700  0.62567300  1
  Nb  Nb3  1  0.00000000  0.40500300  0.12567300  1
  C  C4  1  0.50000000  0.43393400  0.85630400  1
  C  C5  1  0.50000000  0.56606600  0.35630400  1
  C  C6  1  0.50000000  0.34545300  0.78373500  1
  C  C7  1  0.50000000  0.65454700  0.28373500  1
  C  C8  1  0.00000000  0.93393400  0.85630400  1
  C  C9  1  0.00000000  0.06606600  0.35630400  1
  C  C10  1  0.00000000  0.84545300  0.78373500  1
  C  C11  1  0.00000000  0.15454700  0.28373500  1
  N  N12  1  0.50000000  0.27176100  0.72758800  1
  N  N13  1  0.50000000  0.72823900  0.22758800  1
  N  N14  1  0.00000000  0.77176100  0.72758800  1
  N  N15  1  0.00000000  0.22823900  0.22758800  1
  Cl  Cl16  1  0.18035850  0.88963050  0.91144500  1
  Cl  Cl17  1  0.81964150  0.11036950  0.41144500  1
  Cl  Cl18  1  0.81964150  0.88963050  0.91144500  1
  Cl  Cl19  1  0.18035850  0.11036950  0.41144500  1
  Cl  Cl20  1  0.50000000  0.94446100  0.73976300  1
  Cl  Cl21  1  0.50000000  0.05553900  0.23976300  1
  Cl  Cl22  1  0.50000000  0.61837400  0.82802600  1
  Cl  Cl23  1  0.50000000  0.38162600  0.32802600  1
  Cl  Cl24  1  0.50000000  0.91857100  0.53007100  1
  Cl  Cl25  1  0.50000000  0.08142900  0.03007100  1
  Cl  Cl26  1  0.21376550  0.11731250  0.63768500  1
  Cl  Cl27  1  0.78623450  0.88268750  0.13768500  1
  Cl  Cl28  1  0.78623450  0.11731250  0.63768500  1
  Cl  Cl29  1  0.21376550  0.88268750  0.13768500  1
  Cl  Cl30  1  0.50000000  0.29564600  0.53957100  1
  Cl  Cl31  1  0.50000000  0.70435400  0.03957100  1
  Cl  Cl32  1  0.68035850  0.38963050  0.91144500  1
  Cl  Cl33  1  0.31964150  0.61036950  0.41144500  1
  Cl  Cl34  1  0.31964150  0.38963050  0.91144500  1
  Cl  Cl35  1  0.68035850  0.61036950  0.41144500  1
  Cl  Cl36  1  0.00000000  0.44446100  0.73976300  1
  Cl  Cl37  1  0.00000000  0.55553900  0.23976300  1
  Cl  Cl38  1  0.00000000  0.11837400  0.82802600  1
  Cl  Cl39  1  0.00000000  0.88162600  0.32802600  1
  Cl  Cl40  1  0.00000000  0.41857100  0.53007100  1
  Cl  Cl41  1  0.00000000  0.58142900  0.03007100  1
  Cl  Cl42  1  0.71376550  0.61731250  0.63768500  1
  Cl  Cl43  1  0.28623450  0.38268750  0.13768500  1
  Cl  Cl44  1  0.28623450  0.61731250  0.63768500  1
  Cl  Cl45  1  0.71376550  0.38268750  0.13768500  1
  Cl  Cl46  1  0.00000000  0.79564600  0.53957100  1
  Cl  Cl47  1  0.00000000  0.20435400  0.03957100  1
