# generated using pymatgen
data_NbH8N2O2F5
_symmetry_space_group_name_H-M   'P 1'
_cell_length_a   7.74258000
_cell_length_b   9.08325200
_cell_length_c   9.45309300
_cell_angle_alpha   90.00000000
_cell_angle_beta   90.00000000
_cell_angle_gamma   90.00000000
_symmetry_Int_Tables_number   1
_chemical_formula_structural   NbH8N2O2F5
_chemical_formula_sum   'Nb4 H32 N8 O8 F20'
_cell_volume   664.81528370
_cell_formula_units_Z   4
loop_
 _symmetry_equiv_pos_site_id
 _symmetry_equiv_pos_as_xyz
  1  'x, y, z'
loop_
 _atom_site_type_symbol
 _atom_site_label
 _atom_site_symmetry_multiplicity
 _atom_site_fract_x
 _atom_site_fract_y
 _atom_site_fract_z
 _atom_site_occupancy
  Nb  Nb0  1  0.02509300  0.25000000  0.86353300  1
  Nb  Nb1  1  0.52509300  0.75000000  0.63646700  1
  Nb  Nb2  1  0.47490700  0.25000000  0.36353300  1
  Nb  Nb3  1  0.97490700  0.75000000  0.13646700  1
  H  H4  1  0.67031300  0.56022300  0.97521900  1
  H  H5  1  0.67031300  0.93977700  0.97521900  1
  H  H6  1  0.37922000  0.58036200  0.91046500  1
  H  H7  1  0.37922000  0.91963800  0.91046500  1
  H  H8  1  0.45795400  0.09648400  0.88008000  1
  H  H9  1  0.45795400  0.40351600  0.88008000  1
  H  H10  1  0.93735900  0.75000000  0.80979200  1
  H  H11  1  0.13208300  0.75000000  0.76076300  1
  H  H12  1  0.63208300  0.25000000  0.73923700  1
  H  H13  1  0.43735900  0.25000000  0.69020800  1
  H  H14  1  0.95795400  0.59648400  0.61992000  1
  H  H15  1  0.95795400  0.90351600  0.61992000  1
  H  H16  1  0.87922000  0.08036200  0.58953500  1
  H  H17  1  0.87922000  0.41963800  0.58953500  1
  H  H18  1  0.17031300  0.06022300  0.52478100  1
  H  H19  1  0.17031300  0.43977700  0.52478100  1
  H  H20  1  0.82968700  0.56022300  0.47521900  1
  H  H21  1  0.82968700  0.93977700  0.47521900  1
  H  H22  1  0.12078000  0.58036200  0.41046500  1
  H  H23  1  0.12078000  0.91963800  0.41046500  1
  H  H24  1  0.04204600  0.09648400  0.38008000  1
  H  H25  1  0.04204600  0.40351600  0.38008000  1
  H  H26  1  0.56264100  0.75000000  0.30979200  1
  H  H27  1  0.36791700  0.75000000  0.26076300  1
  H  H28  1  0.86791700  0.25000000  0.23923700  1
  H  H29  1  0.06264100  0.25000000  0.19020800  1
  H  H30  1  0.54204600  0.59648400  0.11992000  1
  H  H31  1  0.54204600  0.90351600  0.11992000  1
  H  H32  1  0.62078000  0.08036200  0.08953500  1
  H  H33  1  0.62078000  0.41963800  0.08953500  1
  H  H34  1  0.32968700  0.06022300  0.02478100  1
  H  H35  1  0.32968700  0.43977700  0.02478100  1
  N  N36  1  0.42445200  0.01754000  0.95843900  1
  N  N37  1  0.42445200  0.48246000  0.95843900  1
  N  N38  1  0.92445200  0.51754000  0.54156100  1
  N  N39  1  0.92445200  0.98246000  0.54156100  1
  N  N40  1  0.07554800  0.01754000  0.45843900  1
  N  N41  1  0.07554800  0.48246000  0.45843900  1
  N  N42  1  0.57554800  0.51754000  0.04156100  1
  N  N43  1  0.57554800  0.98246000  0.04156100  1
  O  O44  1  0.83576800  0.75000000  0.98568700  1
  O  O45  1  0.51265500  0.25000000  0.77586900  1
  O  O46  1  0.01265500  0.75000000  0.72413100  1
  O  O47  1  0.33576800  0.25000000  0.51431300  1
  O  O48  1  0.66423200  0.75000000  0.48568700  1
  O  O49  1  0.98734500  0.25000000  0.27586900  1
  O  O50  1  0.48734500  0.75000000  0.22413100  1
  O  O51  1  0.16423200  0.25000000  0.01431300  1
  F  F52  1  0.85713300  0.10122200  0.92239200  1
  F  F53  1  0.85713300  0.39877800  0.92239200  1
  F  F54  1  0.36243800  0.75000000  0.83539100  1
  F  F55  1  0.14941500  0.09685200  0.75440000  1
  F  F56  1  0.14941500  0.40314800  0.75440000  1
  F  F57  1  0.64941500  0.59685200  0.74560000  1
  F  F58  1  0.64941500  0.90314800  0.74560000  1
  F  F59  1  0.86243800  0.25000000  0.66460900  1
  F  F60  1  0.35713300  0.60122200  0.57760800  1
  F  F61  1  0.35713300  0.89877800  0.57760800  1
  F  F62  1  0.64286700  0.10122200  0.42239200  1
  F  F63  1  0.64286700  0.39877800  0.42239200  1
  F  F64  1  0.13756200  0.75000000  0.33539100  1
  F  F65  1  0.35058500  0.09685200  0.25440000  1
  F  F66  1  0.35058500  0.40314800  0.25440000  1
  F  F67  1  0.85058500  0.59685200  0.24560000  1
  F  F68  1  0.85058500  0.90314800  0.24560000  1
  F  F69  1  0.63756200  0.25000000  0.16460900  1
  F  F70  1  0.14286700  0.60122200  0.07760800  1
  F  F71  1  0.14286700  0.89877800  0.07760800  1
