# generated using pymatgen
data_KTm2Cu3Se5
_symmetry_space_group_name_H-M   'P 1'
_cell_length_a   4.08035600
_cell_length_b   14.33745600
_cell_length_c   16.72388900
_cell_angle_alpha   90.00000000
_cell_angle_beta   90.00000000
_cell_angle_gamma   90.00000000
_symmetry_Int_Tables_number   1
_chemical_formula_structural   KTm2Cu3Se5
_chemical_formula_sum   'K4 Tm8 Cu12 Se20'
_cell_volume   978.37969354
_cell_formula_units_Z   4
loop_
 _symmetry_equiv_pos_site_id
 _symmetry_equiv_pos_as_xyz
  1  'x, y, z'
loop_
 _atom_site_type_symbol
 _atom_site_label
 _atom_site_symmetry_multiplicity
 _atom_site_fract_x
 _atom_site_fract_y
 _atom_site_fract_z
 _atom_site_occupancy
  K  K0  1  0.00000000  0.05941000  0.25000000  1
  K  K1  1  0.50000000  0.44059000  0.75000000  1
  K  K2  1  0.50000000  0.55941000  0.25000000  1
  K  K3  1  0.00000000  0.94059000  0.75000000  1
  Tm  Tm4  1  0.00000000  0.19138300  0.90662700  1
  Tm  Tm5  1  0.50000000  0.30861700  0.40662700  1
  Tm  Tm6  1  0.50000000  0.30861700  0.09337300  1
  Tm  Tm7  1  0.00000000  0.19138300  0.59337300  1
  Tm  Tm8  1  0.50000000  0.69138300  0.90662700  1
  Tm  Tm9  1  0.00000000  0.80861700  0.40662700  1
  Tm  Tm10  1  0.00000000  0.80861700  0.09337300  1
  Tm  Tm11  1  0.50000000  0.69138300  0.59337300  1
  Cu  Cu12  1  0.00000000  0.41359900  0.97362900  1
  Cu  Cu13  1  0.50000000  0.08640100  0.47362900  1
  Cu  Cu14  1  0.50000000  0.08640100  0.02637100  1
  Cu  Cu15  1  0.00000000  0.41359900  0.52637100  1
  Cu  Cu16  1  0.50000000  0.16251100  0.75000000  1
  Cu  Cu17  1  0.00000000  0.33748900  0.25000000  1
  Cu  Cu18  1  0.50000000  0.91359900  0.97362900  1
  Cu  Cu19  1  0.00000000  0.58640100  0.47362900  1
  Cu  Cu20  1  0.00000000  0.58640100  0.02637100  1
  Cu  Cu21  1  0.50000000  0.91359900  0.52637100  1
  Cu  Cu22  1  0.00000000  0.66251100  0.75000000  1
  Cu  Cu23  1  0.50000000  0.83748900  0.25000000  1
  Se  Se24  1  0.00000000  0.25349500  0.75000000  1
  Se  Se25  1  0.50000000  0.24650500  0.25000000  1
  Se  Se26  1  0.50000000  0.05916200  0.87942600  1
  Se  Se27  1  0.00000000  0.44083800  0.37942600  1
  Se  Se28  1  0.00000000  0.44083800  0.12057400  1
  Se  Se29  1  0.50000000  0.05916200  0.62057400  1
  Se  Se30  1  0.00000000  0.16600600  0.07223600  1
  Se  Se31  1  0.50000000  0.33399400  0.57223600  1
  Se  Se32  1  0.50000000  0.33399400  0.92776400  1
  Se  Se33  1  0.00000000  0.16600600  0.42776400  1
  Se  Se34  1  0.50000000  0.75349500  0.75000000  1
  Se  Se35  1  0.00000000  0.74650500  0.25000000  1
  Se  Se36  1  0.00000000  0.55916200  0.87942600  1
  Se  Se37  1  0.50000000  0.94083800  0.37942600  1
  Se  Se38  1  0.50000000  0.94083800  0.12057400  1
  Se  Se39  1  0.00000000  0.55916200  0.62057400  1
  Se  Se40  1  0.50000000  0.66600600  0.07223600  1
  Se  Se41  1  0.00000000  0.83399400  0.57223600  1
  Se  Se42  1  0.00000000  0.83399400  0.92776400  1
  Se  Se43  1  0.50000000  0.66600600  0.42776400  1
