# generated using pymatgen
data_CsSi
_symmetry_space_group_name_H-M   'P 1'
_cell_length_a   11.47648600
_cell_length_b   11.47648600
_cell_length_c   18.65653400
_cell_angle_alpha   90.00000000
_cell_angle_beta   90.00000000
_cell_angle_gamma   90.00000000
_symmetry_Int_Tables_number   1
_chemical_formula_structural   CsSi
_chemical_formula_sum   'Cs32 Si32'
_cell_volume   2457.24707282
_cell_formula_units_Z   32
loop_
 _symmetry_equiv_pos_site_id
 _symmetry_equiv_pos_as_xyz
  1  'x, y, z'
loop_
 _atom_site_type_symbol
 _atom_site_label
 _atom_site_symmetry_multiplicity
 _atom_site_fract_x
 _atom_site_fract_y
 _atom_site_fract_z
 _atom_site_occupancy
  Cs  Cs0  1  0.75000000  0.14052600  0.12500000  1
  Cs  Cs1  1  0.25000000  0.85947400  0.12500000  1
  Cs  Cs2  1  0.85947400  0.25000000  0.37500000  1
  Cs  Cs3  1  0.14052600  0.75000000  0.37500000  1
  Cs  Cs4  1  0.35947400  0.25000000  0.37500000  1
  Cs  Cs5  1  0.64052600  0.75000000  0.37500000  1
  Cs  Cs6  1  0.75000000  0.64052600  0.12500000  1
  Cs  Cs7  1  0.25000000  0.35947400  0.12500000  1
  Cs  Cs8  1  0.12088100  0.12088100  0.25000000  1
  Cs  Cs9  1  0.87911900  0.87911900  0.25000000  1
  Cs  Cs10  1  0.62088100  0.87911900  0.00000000  1
  Cs  Cs11  1  0.37911900  0.12088100  0.00000000  1
  Cs  Cs12  1  0.87911900  0.37911900  0.00000000  1
  Cs  Cs13  1  0.12088100  0.62088100  0.00000000  1
  Cs  Cs14  1  0.37911900  0.62088100  0.25000000  1
  Cs  Cs15  1  0.62088100  0.37911900  0.25000000  1
  Cs  Cs16  1  0.25000000  0.64052600  0.62500000  1
  Cs  Cs17  1  0.75000000  0.35947400  0.62500000  1
  Cs  Cs18  1  0.35947400  0.75000000  0.87500000  1
  Cs  Cs19  1  0.64052600  0.25000000  0.87500000  1
  Cs  Cs20  1  0.85947400  0.75000000  0.87500000  1
  Cs  Cs21  1  0.14052600  0.25000000  0.87500000  1
  Cs  Cs22  1  0.25000000  0.14052600  0.62500000  1
  Cs  Cs23  1  0.75000000  0.85947400  0.62500000  1
  Cs  Cs24  1  0.62088100  0.62088100  0.75000000  1
  Cs  Cs25  1  0.37911900  0.37911900  0.75000000  1
  Cs  Cs26  1  0.12088100  0.37911900  0.50000000  1
  Cs  Cs27  1  0.87911900  0.62088100  0.50000000  1
  Cs  Cs28  1  0.37911900  0.87911900  0.50000000  1
  Cs  Cs29  1  0.62088100  0.12088100  0.50000000  1
  Cs  Cs30  1  0.87911900  0.12088100  0.75000000  1
  Cs  Cs31  1  0.12088100  0.87911900  0.75000000  1
  Si  Si32  1  0.55683500  0.41014900  0.04583600  1
  Si  Si33  1  0.44316500  0.58985100  0.04583600  1
  Si  Si34  1  0.05683500  0.58985100  0.20416400  1
  Si  Si35  1  0.94316500  0.41014900  0.20416400  1
  Si  Si36  1  0.58985100  0.44316500  0.45416400  1
  Si  Si37  1  0.41014900  0.55683500  0.45416400  1
  Si  Si38  1  0.41014900  0.94316500  0.29583600  1
  Si  Si39  1  0.58985100  0.05683500  0.29583600  1
  Si  Si40  1  0.44316500  0.08985100  0.20416400  1
  Si  Si41  1  0.55683500  0.91014900  0.20416400  1
  Si  Si42  1  0.94316500  0.91014900  0.04583600  1
  Si  Si43  1  0.05683500  0.08985100  0.04583600  1
  Si  Si44  1  0.91014900  0.55683500  0.29583600  1
  Si  Si45  1  0.08985100  0.44316500  0.29583600  1
  Si  Si46  1  0.08985100  0.05683500  0.45416400  1
  Si  Si47  1  0.91014900  0.94316500  0.45416400  1
  Si  Si48  1  0.05683500  0.91014900  0.54583600  1
  Si  Si49  1  0.94316500  0.08985100  0.54583600  1
  Si  Si50  1  0.55683500  0.08985100  0.70416400  1
  Si  Si51  1  0.44316500  0.91014900  0.70416400  1
  Si  Si52  1  0.08985100  0.94316500  0.95416400  1
  Si  Si53  1  0.91014900  0.05683500  0.95416400  1
  Si  Si54  1  0.91014900  0.44316500  0.79583600  1
  Si  Si55  1  0.08985100  0.55683500  0.79583600  1
  Si  Si56  1  0.94316500  0.58985100  0.70416400  1
  Si  Si57  1  0.05683500  0.41014900  0.70416400  1
  Si  Si58  1  0.44316500  0.41014900  0.54583600  1
  Si  Si59  1  0.55683500  0.58985100  0.54583600  1
  Si  Si60  1  0.41014900  0.05683500  0.79583600  1
  Si  Si61  1  0.58985100  0.94316500  0.79583600  1
  Si  Si62  1  0.58985100  0.55683500  0.95416400  1
  Si  Si63  1  0.41014900  0.44316500  0.95416400  1
