# generated using pymatgen
data_LiVP2(HO4)2
_symmetry_space_group_name_H-M   'P 1'
_cell_length_a   10.18287400
_cell_length_b   16.05720600
_cell_length_c   8.85238161
_cell_angle_alpha   90.00000000
_cell_angle_beta   122.89930228
_cell_angle_gamma   90.00000000
_symmetry_Int_Tables_number   1
_chemical_formula_structural   LiVP2(HO4)2
_chemical_formula_sum   'Li8 V8 P16 H16 O64'
_cell_volume   1215.30868770
_cell_formula_units_Z   8
loop_
 _symmetry_equiv_pos_site_id
 _symmetry_equiv_pos_as_xyz
  1  'x, y, z'
loop_
 _atom_site_type_symbol
 _atom_site_label
 _atom_site_symmetry_multiplicity
 _atom_site_fract_x
 _atom_site_fract_y
 _atom_site_fract_z
 _atom_site_occupancy
  Li  Li0  1  0.04232500  0.17404900  0.64555600  1
  Li  Li1  1  0.59557950  0.19291250  0.69107500  1
  Li  Li2  1  0.54232500  0.32595100  0.14555600  1
  Li  Li3  1  0.09557950  0.30708750  0.19107500  1
  Li  Li4  1  0.54232500  0.67404900  0.64555600  1
  Li  Li5  1  0.09557950  0.69291250  0.69107500  1
  Li  Li6  1  0.04232500  0.82595100  0.14555600  1
  Li  Li7  1  0.59557950  0.80708750  0.19107500  1
  V  V8  1  0.47391200  0.11019800  0.95964800  1
  V  V9  1  0.97391200  0.38980200  0.45964800  1
  V  V10  1  0.49711750  0.36029850  0.49239200  1
  V  V11  1  0.99711750  0.13970150  0.99239200  1
  V  V12  1  0.97391200  0.61019800  0.95964800  1
  V  V13  1  0.47391200  0.88980200  0.45964800  1
  V  V14  1  0.99711750  0.86029850  0.49239200  1
  V  V15  1  0.49711750  0.63970150  0.99239200  1
  P  P16  1  0.65508800  0.49729400  0.84477200  1
  P  P17  1  0.30775700  0.27253800  0.68139400  1
  P  P18  1  0.15508800  0.00270600  0.34477200  1
  P  P19  1  0.87507950  0.30861350  0.74492700  1
  P  P20  1  0.80775700  0.22746200  0.18139400  1
  P  P21  1  0.37507950  0.19138650  0.24492700  1
  P  P22  1  0.67371200  0.02120100  0.81503500  1
  P  P23  1  0.17371200  0.47879900  0.31503500  1
  P  P24  1  0.15508800  0.99729400  0.84477200  1
  P  P25  1  0.80775700  0.77253800  0.68139400  1
  P  P26  1  0.65508800  0.50270600  0.34477200  1
  P  P27  1  0.37507950  0.80861350  0.74492700  1
  P  P28  1  0.30775700  0.72746200  0.18139400  1
  P  P29  1  0.87507950  0.69138650  0.24492700  1
  P  P30  1  0.17371200  0.52120100  0.81503500  1
  P  P31  1  0.67371200  0.97879900  0.31503500  1
  H  H32  1  0.91047300  0.42044700  0.90662100  1
  H  H33  1  0.28439750  0.06467850  0.60293900  1
  H  H34  1  0.41047300  0.07955300  0.40662100  1
  H  H35  1  0.78439750  0.43532150  0.10293900  1
  H  H36  1  0.29758850  0.38502650  0.80907500  1
  H  H37  1  0.86760850  0.00822850  0.58384000  1
  H  H38  1  0.79758850  0.11497350  0.30907500  1
  H  H39  1  0.36760850  0.49177150  0.08384000  1
  H  H40  1  0.41047300  0.92044700  0.90662100  1
  H  H41  1  0.78439750  0.56467850  0.60293900  1
  H  H42  1  0.91047300  0.57955300  0.40662100  1
  H  H43  1  0.28439750  0.93532150  0.10293900  1
  H  H44  1  0.79758850  0.88502650  0.80907500  1
  H  H45  1  0.36760850  0.50822850  0.58384000  1
  H  H46  1  0.29758850  0.61497350  0.30907500  1
  H  H47  1  0.86760850  0.99177150  0.08384000  1
  O  O48  1  0.08334100  0.07977100  0.85466300  1
  O  O49  1  0.67787650  0.43371450  0.99412400  1
  O  O50  1  0.53617050  0.45581350  0.66344000  1
  O  O51  1  0.69915750  0.29920950  0.67172200  1
  O  O52  1  0.31612450  0.01005850  0.87060100  1
  O  O53  1  0.58334100  0.42022900  0.35466300  1
  O  O54  1  0.17787650  0.06628550  0.49412400  1
  O  O55  1  0.36838000  0.33595400  0.84884200  1
  O  O56  1  0.03617050  0.04418650  0.16344000  1
  O  O57  1  0.30970000  0.18557500  0.75604800  1
  O  O58  1  0.95735450  0.36271750  0.92529000  1
  O  O59  1  0.95578450  0.22319650  0.79853300  1
  O  O60  1  0.90007300  0.34949100  0.60886700  1
  O  O61  1  0.19915750  0.20079050  0.17172200  1
  O  O62  1  0.41844700  0.27756100  0.61383600  1
  O  O63  1  0.81612450  0.48994150  0.37060100  1
  O  O64  1  0.52230150  0.05859750  0.78721800  1
  O  O65  1  0.86838000  0.16404600  0.34884200  1
  O  O66  1  0.80970000  0.31442500  0.25604800  1
  O  O67  1  0.45735450  0.13728250  0.42529000  1
  O  O68  1  0.26556750  0.46596050  0.99105600  1
  O  O69  1  0.45578450  0.27680350  0.29853300  1
  O  O70  1  0.13871250  0.45933750  0.66598200  1
  O  O71  1  0.40007300  0.15050900  0.10886700  1
  O  O72  1  0.91844700  0.22243900  0.11383600  1
  O  O73  1  0.13759350  0.29525550  0.53609800  1
  O  O74  1  0.02230150  0.44140250  0.28721800  1
  O  O75  1  0.77587350  0.09601250  0.82929600  1
  O  O76  1  0.76556750  0.03403950  0.49105600  1
  O  O77  1  0.63871250  0.04066250  0.16598200  1
  O  O78  1  0.63759350  0.20474450  0.03609800  1
  O  O79  1  0.27587350  0.40398750  0.32929600  1
  O  O80  1  0.58334100  0.57977100  0.85466300  1
  O  O81  1  0.17787650  0.93371450  0.99412400  1
  O  O82  1  0.03617050  0.95581350  0.66344000  1
  O  O83  1  0.19915750  0.79920950  0.67172200  1
  O  O84  1  0.81612450  0.51005850  0.87060100  1
  O  O85  1  0.08334100  0.92022900  0.35466300  1
  O  O86  1  0.67787650  0.56628550  0.49412400  1
  O  O87  1  0.86838000  0.83595400  0.84884200  1
  O  O88  1  0.53617050  0.54418650  0.16344000  1
  O  O89  1  0.80970000  0.68557500  0.75604800  1
  O  O90  1  0.45735450  0.86271750  0.92529000  1
  O  O91  1  0.45578450  0.72319650  0.79853300  1
  O  O92  1  0.40007300  0.84949100  0.60886700  1
  O  O93  1  0.69915750  0.70079050  0.17172200  1
  O  O94  1  0.91844700  0.77756100  0.61383600  1
  O  O95  1  0.31612450  0.98994150  0.37060100  1
  O  O96  1  0.02230150  0.55859750  0.78721800  1
  O  O97  1  0.36838000  0.66404600  0.34884200  1
  O  O98  1  0.30970000  0.81442500  0.25604800  1
  O  O99  1  0.95735450  0.63728250  0.42529000  1
  O  O100  1  0.76556750  0.96596050  0.99105600  1
  O  O101  1  0.95578450  0.77680350  0.29853300  1
  O  O102  1  0.63871250  0.95933750  0.66598200  1
  O  O103  1  0.90007300  0.65050900  0.10886700  1
  O  O104  1  0.41844700  0.72243900  0.11383600  1
  O  O105  1  0.63759350  0.79525550  0.53609800  1
  O  O106  1  0.52230150  0.94140250  0.28721800  1
  O  O107  1  0.27587350  0.59601250  0.82929600  1
  O  O108  1  0.26556750  0.53403950  0.49105600  1
  O  O109  1  0.13871250  0.54066250  0.16598200  1
  O  O110  1  0.13759350  0.70474450  0.03609800  1
  O  O111  1  0.77587350  0.90398750  0.32929600  1
