# generated using pymatgen
data_LiNO3
_symmetry_space_group_name_H-M   'P 1'
_cell_length_a   4.76502356
_cell_length_b   4.76502356
_cell_length_c   15.40773022
_cell_angle_alpha   90.00000000
_cell_angle_beta   90.00000000
_cell_angle_gamma   120.00000000
_symmetry_Int_Tables_number   1
_chemical_formula_structural   LiNO3
_chemical_formula_sum   'Li6 N6 O18'
_cell_volume   302.96984353
_cell_formula_units_Z   6
loop_
 _symmetry_equiv_pos_site_id
 _symmetry_equiv_pos_as_xyz
  1  'x, y, z'
loop_
 _atom_site_type_symbol
 _atom_site_label
 _atom_site_symmetry_multiplicity
 _atom_site_fract_x
 _atom_site_fract_y
 _atom_site_fract_z
 _atom_site_occupancy
  Li  Li0  1  0.33333333  0.66666667  0.16666667  1
  Li  Li1  1  0.00000000  0.00000000  0.00000000  1
  Li  Li2  1  1.00000000  0.00000000  0.50000000  1
  Li  Li3  1  0.66666667  0.33333333  0.33333333  1
  Li  Li4  1  0.66666667  0.33333333  0.83333333  1
  Li  Li5  1  0.33333333  0.66666667  0.66666667  1
  N  N6  1  0.66666667  0.33333333  0.08333333  1
  N  N7  1  0.00000000  0.00000000  0.25000000  1
  N  N8  1  0.33333333  0.66666667  0.41666667  1
  N  N9  1  0.66666667  0.33333333  0.58333333  1
  N  N10  1  0.00000000  0.00000000  0.75000000  1
  N  N11  1  0.33333333  0.66666667  0.91666667  1
  O  O12  1  0.93249167  0.59915833  0.08333333  1
  O  O13  1  0.66666667  0.06750833  0.08333333  1
  O  O14  1  0.40084167  0.33333333  0.08333333  1
  O  O15  1  0.73417500  0.73417500  0.25000000  1
  O  O16  1  1.00000000  0.26582500  0.25000000  1
  O  O17  1  0.26582500  0.00000000  0.25000000  1
  O  O18  1  0.59915833  0.93249167  0.41666667  1
  O  O19  1  0.33333333  0.40084167  0.41666667  1
  O  O20  1  0.06750833  0.66666667  0.41666667  1
  O  O21  1  0.40084167  0.06750833  0.58333333  1
  O  O22  1  0.66666667  0.59915833  0.58333333  1
  O  O23  1  0.93249167  0.33333333  0.58333333  1
  O  O24  1  0.26582500  0.26582500  0.75000000  1
  O  O25  1  0.00000000  0.73417500  0.75000000  1
  O  O26  1  0.73417500  1.00000000  0.75000000  1
  O  O27  1  0.06750833  0.40084167  0.91666667  1
  O  O28  1  0.33333333  0.93249167  0.91666667  1
  O  O29  1  0.59915833  0.66666667  0.91666667  1
