# generated using pymatgen
data_Na2Ti4O9
_symmetry_space_group_name_H-M   'P 1'
_cell_length_a   8.87064800
_cell_length_b   10.72619734
_cell_length_c   12.47295926
_cell_angle_alpha   101.90459841
_cell_angle_beta   110.78138906
_cell_angle_gamma   90.01451331
_symmetry_Int_Tables_number   1
_chemical_formula_structural   Na2Ti4O9
_chemical_formula_sum   'Na12 Ti24 O54'
_cell_volume   1082.20183996
_cell_formula_units_Z   6
loop_
 _symmetry_equiv_pos_site_id
 _symmetry_equiv_pos_as_xyz
  1  'x, y, z'
loop_
 _atom_site_type_symbol
 _atom_site_label
 _atom_site_symmetry_multiplicity
 _atom_site_fract_x
 _atom_site_fract_y
 _atom_site_fract_z
 _atom_site_occupancy
  Na  Na0  1  0.96331500  0.10044100  0.28667400  1
  Na  Na1  1  0.86425900  0.39727000  0.72615200  1
  Na  Na2  1  0.19475400  0.39703600  0.72462100  1
  Na  Na3  1  0.52921000  0.40676600  0.72479900  1
  Na  Na4  1  0.38371600  0.29737200  0.14478500  1
  Na  Na5  1  0.75603700  0.30547700  0.14124200  1
  Na  Na6  1  0.91139300  0.69569700  0.85793900  1
  Na  Na7  1  0.28860600  0.70712000  0.85300600  1
  Na  Na8  1  0.13788800  0.59462400  0.27640500  1
  Na  Na9  1  0.47151800  0.60378200  0.27409000  1
  Na  Na10  1  0.80198700  0.60424800  0.27313900  1
  Na  Na11  1  0.68215300  0.89945200  0.71398000  1
  Ti  Ti12  1  0.10381400  0.18297900  0.87353900  1
  Ti  Ti13  1  0.43827300  0.18784200  0.87754600  1
  Ti  Ti14  1  0.95270900  0.11787800  0.56920100  1
  Ti  Ti15  1  0.28567300  0.11849500  0.57082900  1
  Ti  Ti16  1  0.77176100  0.19425100  0.87688300  1
  Ti  Ti17  1  0.61506500  0.12517800  0.56389500  1
  Ti  Ti18  1  0.00266100  0.00979000  0.00896600  1
  Ti  Ti19  1  0.33321200  0.50114200  0.99889700  1
  Ti  Ti20  1  0.72139900  0.37067900  0.44010300  1
  Ti  Ti21  1  0.38428100  0.37049000  0.44025400  1
  Ti  Ti22  1  0.05788700  0.37977400  0.44738600  1
  Ti  Ti23  1  0.66267600  0.51058400  0.99186900  1
  Ti  Ti24  1  0.60837100  0.61862600  0.55148700  1
  Ti  Ti25  1  0.00562200  0.49062200  0.00941600  1
  Ti  Ti26  1  0.94360500  0.62686300  0.55726200  1
  Ti  Ti27  1  0.28211200  0.62809300  0.55918300  1
  Ti  Ti28  1  0.66289100  0.99241300  0.99278500  1
  Ti  Ti29  1  0.33145600  0.99994300  0.99998000  1
  Ti  Ti30  1  0.05182900  0.87477400  0.43643500  1
  Ti  Ti31  1  0.38111300  0.88120600  0.42896000  1
  Ti  Ti32  1  0.89530800  0.80726400  0.12297300  1
  Ti  Ti33  1  0.71411900  0.88250100  0.43146100  1
  Ti  Ti34  1  0.22858200  0.81223500  0.12275000  1
  Ti  Ti35  1  0.56294800  0.81854000  0.12689300  1
  O  O36  1  0.59612800  0.05974000  0.84955200  1
  O  O37  1  0.25818600  0.06031400  0.85061200  1
  O  O38  1  0.92277400  0.06129900  0.85308100  1
  O  O39  1  0.12973500  0.00849000  0.59320200  1
  O  O40  1  0.46535700  0.00970600  0.59271600  1
  O  O41  1  0.79351300  0.00966000  0.59238200  1
  O  O42  1  0.69616900  0.21926300  0.72643200  1
  O  O43  1  0.02985200  0.21873900  0.72643800  1
  O  O44  1  0.36406000  0.21884100  0.72689200  1
  O  O45  1  0.30163900  0.30412900  0.93871400  1
  O  O46  1  0.97178400  0.30492500  0.93968900  1
  O  O47  1  0.63559300  0.30539900  0.93952400  1
  O  O48  1  0.09064100  0.21785400  0.51588400  1
  O  O49  1  0.42402600  0.22017400  0.51671400  1
  O  O50  1  0.75970500  0.22113900  0.51723100  1
  O  O51  1  0.85537100  0.12339700  0.05009300  1
  O  O52  1  0.19047500  0.12414500  0.04386500  1
  O  O53  1  0.52133400  0.12460300  0.04103400  1
  O  O54  1  0.16990800  0.31636400  0.34683000  1
  O  O55  1  0.84091700  0.31792900  0.34227800  1
  O  O56  1  0.50492900  0.32325000  0.34251100  1
  O  O57  1  0.77994600  0.51058500  0.89100200  1
  O  O58  1  0.44184400  0.51412000  0.88811300  1
  O  O59  1  0.11370800  0.51616000  0.89333500  1
  O  O60  1  0.61730600  0.44456600  0.56805600  1
  O  O61  1  0.94992200  0.44651200  0.56817200  1
  O  O62  1  0.28509400  0.44748800  0.56955500  1
  O  O63  1  0.71462900  0.55138300  0.42932800  1
  O  O64  1  0.38131000  0.55143600  0.42962900  1
  O  O65  1  0.04853900  0.55381100  0.43039200  1
  O  O66  1  0.55195600  0.48374200  0.10614300  1
  O  O67  1  0.22457100  0.48749800  0.11169800  1
  O  O68  1  0.88614600  0.48990000  0.10950900  1
  O  O69  1  0.16033600  0.67279700  0.65629800  1
  O  O70  1  0.82507600  0.67886500  0.65567100  1
  O  O71  1  0.49681700  0.68116200  0.65356700  1
  O  O72  1  0.47849600  0.87633500  0.95839300  1
  O  O73  1  0.14583300  0.87591600  0.95803100  1
  O  O74  1  0.81234200  0.87788000  0.95194400  1
  O  O75  1  0.90640900  0.77804500  0.48181800  1
  O  O76  1  0.24218000  0.77874100  0.48323100  1
  O  O77  1  0.57643900  0.78231600  0.48506500  1
  O  O78  1  0.03057200  0.69493900  0.06044400  1
  O  O79  1  0.69559500  0.69593100  0.06189500  1
  O  O80  1  0.36515100  0.69655800  0.06063900  1
  O  O81  1  0.30315500  0.78037200  0.27306000  1
  O  O82  1  0.63631600  0.78258400  0.27402500  1
  O  O83  1  0.97075900  0.78241800  0.27376700  1
  O  O84  1  0.87283400  0.99091400  0.40803100  1
  O  O85  1  0.20198600  0.98982100  0.40802200  1
  O  O86  1  0.53624100  0.99139900  0.40685500  1
  O  O87  1  0.74442400  0.94044600  0.14860100  1
  O  O88  1  0.40755000  0.94000500  0.14980500  1
  O  O89  1  0.07189700  0.94029300  0.15087000  1
