# generated using pymatgen
data_K2TeH6SeO10
_symmetry_space_group_name_H-M   'P 1'
_cell_length_a   11.71628600
_cell_length_b   6.52573600
_cell_length_c   13.99733196
_cell_angle_alpha   90.00000000
_cell_angle_beta   106.49749377
_cell_angle_gamma   90.00000000
_symmetry_Int_Tables_number   1
_chemical_formula_structural   K2TeH6SeO10
_chemical_formula_sum   'K8 Te4 H24 Se4 O40'
_cell_volume   1026.14165636
_cell_formula_units_Z   4
loop_
 _symmetry_equiv_pos_site_id
 _symmetry_equiv_pos_as_xyz
  1  'x, y, z'
loop_
 _atom_site_type_symbol
 _atom_site_label
 _atom_site_symmetry_multiplicity
 _atom_site_fract_x
 _atom_site_fract_y
 _atom_site_fract_z
 _atom_site_occupancy
  K  K0  1  0.06167350  0.69494950  0.38344400  1
  K  K1  1  0.06167350  0.30505050  0.88344400  1
  K  K2  1  0.26275250  0.21302650  0.59803200  1
  K  K3  1  0.76275250  0.28697350  0.09803200  1
  K  K4  1  0.56167350  0.19494950  0.38344400  1
  K  K5  1  0.56167350  0.80505050  0.88344400  1
  K  K6  1  0.76275250  0.71302650  0.59803200  1
  K  K7  1  0.26275250  0.78697350  0.09803200  1
  Te  Te8  1  0.16330700  0.75131600  0.73796600  1
  Te  Te9  1  0.66330700  0.74868400  0.23796600  1
  Te  Te10  1  0.66330700  0.25131600  0.73796600  1
  Te  Te11  1  0.16330700  0.24868400  0.23796600  1
  H  H12  1  0.30542000  0.99030100  0.84367100  1
  H  H13  1  0.80542000  0.50969900  0.34367100  1
  H  H14  1  0.07610550  0.80037150  0.87607300  1
  H  H15  1  0.07610550  0.19962850  0.37607300  1
  H  H16  1  0.00589750  0.02091650  0.67184000  1
  H  H17  1  0.00589750  0.97908350  0.17184000  1
  H  H18  1  0.31726200  0.48056100  0.80721500  1
  H  H19  1  0.81726200  0.01943900  0.30721500  1
  H  H20  1  0.25169750  0.70563250  0.59895700  1
  H  H21  1  0.75169750  0.79436750  0.09895700  1
  H  H22  1  0.01995150  0.51467650  0.62954700  1
  H  H23  1  0.01995150  0.48532350  0.12954700  1
  H  H24  1  0.80542000  0.49030100  0.84367100  1
  H  H25  1  0.30542000  0.00969900  0.34367100  1
  H  H26  1  0.57610550  0.30037150  0.87607300  1
  H  H27  1  0.57610550  0.69962850  0.37607300  1
  H  H28  1  0.50589750  0.52091650  0.67184000  1
  H  H29  1  0.50589750  0.47908350  0.17184000  1
  H  H30  1  0.81726200  0.98056100  0.80721500  1
  H  H31  1  0.31726200  0.51943900  0.30721500  1
  H  H32  1  0.75169750  0.20563250  0.59895700  1
  H  H33  1  0.25169750  0.29436750  0.09895700  1
  H  H34  1  0.51995150  0.01467650  0.62954700  1
  H  H35  1  0.51995150  0.98532350  0.12954700  1
  Se  Se36  1  0.91264550  0.21721350  0.48754600  1
  Se  Se37  1  0.41264550  0.28278650  0.98754600  1
  Se  Se38  1  0.41264550  0.71721350  0.48754600  1
  Se  Se39  1  0.91264550  0.78278650  0.98754600  1
  O  O40  1  0.31509250  0.89388550  0.78970600  1
  O  O41  1  0.81509250  0.60611450  0.28970600  1
  O  O42  1  0.14787200  0.72132900  0.87353900  1
  O  O43  1  0.14787200  0.27867100  0.37353900  1
  O  O44  1  0.08091650  0.01435650  0.72831100  1
  O  O45  1  0.08091650  0.98564350  0.22831100  1
  O  O46  1  0.24236700  0.48464800  0.75059000  1
  O  O47  1  0.74236700  0.01535200  0.25059000  1
  O  O48  1  0.17867600  0.78031000  0.60261000  1
  O  O49  1  0.67867600  0.71969000  0.10261000  1
  O  O50  1  0.01150750  0.61136250  0.68381000  1
  O  O51  1  0.01150750  0.38863750  0.18381000  1
  O  O52  1  0.03000900  0.36805700  0.53569300  1
  O  O53  1  0.53000900  0.13194300  0.03569300  1
  O  O54  1  0.94852650  0.06558750  0.40301800  1
  O  O55  1  0.44852650  0.43441250  0.90301800  1
  O  O56  1  0.87817900  0.07786100  0.57760900  1
  O  O57  1  0.87817900  0.92213900  0.07760900  1
  O  O58  1  0.79344250  0.35981450  0.43472400  1
  O  O59  1  0.29344250  0.14018550  0.93472400  1
  O  O60  1  0.81509250  0.39388550  0.78970600  1
  O  O61  1  0.31509250  0.10611450  0.28970600  1
  O  O62  1  0.64787200  0.22132900  0.87353900  1
  O  O63  1  0.64787200  0.77867100  0.37353900  1
  O  O64  1  0.58091650  0.51435650  0.72831100  1
  O  O65  1  0.58091650  0.48564350  0.22831100  1
  O  O66  1  0.74236700  0.98464800  0.75059000  1
  O  O67  1  0.24236700  0.51535200  0.25059000  1
  O  O68  1  0.67867600  0.28031000  0.60261000  1
  O  O69  1  0.17867600  0.21969000  0.10261000  1
  O  O70  1  0.51150750  0.11136250  0.68381000  1
  O  O71  1  0.51150750  0.88863750  0.18381000  1
  O  O72  1  0.53000900  0.86805700  0.53569300  1
  O  O73  1  0.03000900  0.63194300  0.03569300  1
  O  O74  1  0.44852650  0.56558750  0.40301800  1
  O  O75  1  0.94852650  0.93441250  0.90301800  1
  O  O76  1  0.37817900  0.57786100  0.57760900  1
  O  O77  1  0.37817900  0.42213900  0.07760900  1
  O  O78  1  0.29344250  0.85981450  0.43472400  1
  O  O79  1  0.79344250  0.64018550  0.93472400  1
