# generated using pymatgen
data_Dy2H16S3O20
_symmetry_space_group_name_H-M   'P 1'
_cell_length_a   13.68957000
_cell_length_b   6.71642400
_cell_length_c   18.27382198
_cell_angle_alpha   90.00000000
_cell_angle_beta   100.31578807
_cell_angle_gamma   90.00000000
_symmetry_Int_Tables_number   1
_chemical_formula_structural   Dy2H16S3O20
_chemical_formula_sum   'Dy8 H64 S12 O80'
_cell_volume   1653.02679175
_cell_formula_units_Z   4
loop_
 _symmetry_equiv_pos_site_id
 _symmetry_equiv_pos_as_xyz
  1  'x, y, z'
loop_
 _atom_site_type_symbol
 _atom_site_label
 _atom_site_symmetry_multiplicity
 _atom_site_fract_x
 _atom_site_fract_y
 _atom_site_fract_z
 _atom_site_occupancy
  Dy  Dy0  1  0.84031050  0.99582250  0.61137700  1
  Dy  Dy1  1  0.84031050  0.00417750  0.11137700  1
  Dy  Dy2  1  0.65968950  0.49582250  0.88862300  1
  Dy  Dy3  1  0.65968950  0.50417750  0.38862300  1
  Dy  Dy4  1  0.34031050  0.49582250  0.61137700  1
  Dy  Dy5  1  0.34031050  0.50417750  0.11137700  1
  Dy  Dy6  1  0.15968950  0.99582250  0.88862300  1
  Dy  Dy7  1  0.15968950  0.00417750  0.38862300  1
  H  H8  1  0.99494400  0.68079100  0.60767300  1
  H  H9  1  0.99849250  0.80322850  0.53428600  1
  H  H10  1  0.99799900  0.30491800  0.83988800  1
  H  H11  1  0.85003050  0.41337950  0.49489500  1
  H  H12  1  0.94390550  0.09808650  0.85342000  1
  H  H13  1  0.99494400  0.31920900  0.10767300  1
  H  H14  1  0.99849250  0.19677150  0.03428600  1
  H  H15  1  0.99799900  0.69508200  0.33988800  1
  H  H16  1  0.84954250  0.38950350  0.94937900  1
  H  H17  1  0.85003050  0.58662050  0.99489500  1
  H  H18  1  0.82149650  0.56333450  0.79871500  1
  H  H19  1  0.94390550  0.90191350  0.35342000  1
  H  H20  1  0.77589700  0.99472300  0.75855800  1
  H  H21  1  0.72410300  0.49472300  0.74144200  1
  H  H22  1  0.67850350  0.06333450  0.70128500  1
  H  H23  1  0.65045750  0.88950350  0.55062100  1
  H  H24  1  0.84954250  0.61049650  0.44937900  1
  H  H25  1  0.82149650  0.43666550  0.29871500  1
  H  H26  1  0.77589700  0.00527700  0.25855800  1
  H  H27  1  0.72410300  0.50527700  0.24144200  1
  H  H28  1  0.55609450  0.59808650  0.64658000  1
  H  H29  1  0.67850350  0.93666550  0.20128500  1
  H  H30  1  0.64996950  0.91337950  0.00510500  1
  H  H31  1  0.65045750  0.11049650  0.05062100  1
  H  H32  1  0.50200100  0.80491800  0.66011200  1
  H  H33  1  0.50150750  0.30322850  0.96571400  1
  H  H34  1  0.50505600  0.18079100  0.89232700  1
  H  H35  1  0.55609450  0.40191350  0.14658000  1
  H  H36  1  0.64996950  0.08662050  0.50510500  1
  H  H37  1  0.50200100  0.19508200  0.16011200  1
  H  H38  1  0.50150750  0.69677150  0.46571400  1
  H  H39  1  0.50505600  0.81920900  0.39232700  1
  H  H40  1  0.49494400  0.18079100  0.60767300  1
  H  H41  1  0.49849250  0.30322850  0.53428600  1
  H  H42  1  0.49799900  0.80491800  0.83988800  1
  H  H43  1  0.35003050  0.91337950  0.49489500  1
  H  H44  1  0.44390550  0.59808650  0.85342000  1
  H  H45  1  0.49494400  0.81920900  0.10767300  1
  H  H46  1  0.49849250  0.69677150  0.03428600  1
  H  H47  1  0.49799900  0.19508200  0.33988800  1
  H  H48  1  0.34954250  0.88950350  0.94937900  1
  H  H49  1  0.35003050  0.08662050  0.99489500  1
  H  H50  1  0.32149650  0.06333450  0.79871500  1
  H  H51  1  0.44390550  0.40191350  0.35342000  1
  H  H52  1  0.27589700  0.49472300  0.75855800  1
  H  H53  1  0.22410300  0.99472300  0.74144200  1
  H  H54  1  0.17850350  0.56333450  0.70128500  1
  H  H55  1  0.15045750  0.38950350  0.55062100  1
  H  H56  1  0.34954250  0.11049650  0.44937900  1
  H  H57  1  0.32149650  0.93666550  0.29871500  1
  H  H58  1  0.27589700  0.50527700  0.25855800  1
  H  H59  1  0.22410300  0.00527700  0.24144200  1
  H  H60  1  0.05609450  0.09808650  0.64658000  1
  H  H61  1  0.17850350  0.43666550  0.20128500  1
  H  H62  1  0.14996950  0.41337950  0.00510500  1
  H  H63  1  0.15045750  0.61049650  0.05062100  1
  H  H64  1  0.00200100  0.30491800  0.66011200  1
  H  H65  1  0.00150750  0.80322850  0.96571400  1
  H  H66  1  0.00505600  0.68079100  0.89232700  1
  H  H67  1  0.05609450  0.90191350  0.14658000  1
  H  H68  1  0.14996950  0.58662050  0.50510500  1
  H  H69  1  0.00200100  0.69508200  0.16011200  1
  H  H70  1  0.00150750  0.19677150  0.46571400  1
  H  H71  1  0.00505600  0.31920900  0.39232700  1
  S  S72  1  0.72093350  0.48705050  0.58799100  1
  S  S73  1  0.77906650  0.98705050  0.91200900  1
  S  S74  1  0.72093350  0.51294950  0.08799100  1
  S  S75  1  0.77906650  0.01294950  0.41200900  1
  S  S76  1  0.00000000  0.68386700  0.75000000  1
  S  S77  1  0.00000000  0.31613300  0.25000000  1
  S  S78  1  0.22093350  0.98705050  0.58799100  1
  S  S79  1  0.27906650  0.48705050  0.91200900  1
  S  S80  1  0.22093350  0.01294950  0.08799100  1
  S  S81  1  0.27906650  0.51294950  0.41200900  1
  S  S82  1  0.50000000  0.18386700  0.75000000  1
  S  S83  1  0.50000000  0.81613300  0.25000000  1
  O  O84  1  0.99132500  0.17024400  0.63844400  1
  O  O85  1  0.95482700  0.76441000  0.56841300  1
  O  O86  1  0.96266300  0.55583400  0.80632700  1
  O  O87  1  0.91737700  0.81141600  0.71287700  1
  O  O88  1  0.99132500  0.82975600  0.13844400  1
  O  O89  1  0.95482700  0.23559000  0.06841300  1
  O  O90  1  0.80911500  0.35232700  0.59718100  1
  O  O91  1  0.83615300  0.95742100  0.85139700  1
  O  O92  1  0.75494750  0.69658550  0.58710000  1
  O  O93  1  0.96266300  0.44416600  0.30632700  1
  O  O94  1  0.84526200  0.94594400  0.98524800  1
  O  O95  1  0.83669450  0.53276450  0.94414600  1
  O  O96  1  0.91737700  0.18858400  0.21287700  1
  O  O97  1  0.75046300  0.03724300  0.70671000  1
  O  O98  1  0.74953700  0.53724300  0.79329000  1
  O  O99  1  0.66330550  0.03276450  0.55585400  1
  O  O100  1  0.65473800  0.44594400  0.51475200  1
  O  O101  1  0.80911500  0.64767300  0.09718100  1
  O  O102  1  0.74505250  0.19658550  0.91290000  1
  O  O103  1  0.66384700  0.45742100  0.64860300  1
  O  O104  1  0.83615300  0.04257900  0.35139700  1
  O  O105  1  0.75494750  0.30341450  0.08710000  1
  O  O106  1  0.69088500  0.85232700  0.90281900  1
  O  O107  1  0.84526200  0.05405600  0.48524800  1
  O  O108  1  0.83669450  0.46723550  0.44414600  1
  O  O109  1  0.75046300  0.96275700  0.20671000  1
  O  O110  1  0.74953700  0.46275700  0.29329000  1
  O  O111  1  0.58262300  0.31141600  0.78712300  1
  O  O112  1  0.66330550  0.96723550  0.05585400  1
  O  O113  1  0.65473800  0.55405600  0.01475200  1
  O  O114  1  0.53733700  0.05583400  0.69367300  1
  O  O115  1  0.74505250  0.80341450  0.41290000  1
  O  O116  1  0.66384700  0.54257900  0.14860300  1
  O  O117  1  0.69088500  0.14767300  0.40281900  1
  O  O118  1  0.54517300  0.26441000  0.93158700  1
  O  O119  1  0.50867500  0.67024400  0.86155600  1
  O  O120  1  0.58262300  0.68858400  0.28712300  1
  O  O121  1  0.53733700  0.94416600  0.19367300  1
  O  O122  1  0.54517300  0.73559000  0.43158700  1
  O  O123  1  0.50867500  0.32975600  0.36155600  1
  O  O124  1  0.49132500  0.67024400  0.63844400  1
  O  O125  1  0.45482700  0.26441000  0.56841300  1
  O  O126  1  0.46266300  0.05583400  0.80632700  1
  O  O127  1  0.41737700  0.31141600  0.71287700  1
  O  O128  1  0.49132500  0.32975600  0.13844400  1
  O  O129  1  0.45482700  0.73559000  0.06841300  1
  O  O130  1  0.30911500  0.85232700  0.59718100  1
  O  O131  1  0.33615300  0.45742100  0.85139700  1
  O  O132  1  0.25494750  0.19658550  0.58710000  1
  O  O133  1  0.46266300  0.94416600  0.30632700  1
  O  O134  1  0.34526200  0.44594400  0.98524800  1
  O  O135  1  0.33669450  0.03276450  0.94414600  1
  O  O136  1  0.41737700  0.68858400  0.21287700  1
  O  O137  1  0.25046300  0.53724300  0.70671000  1
  O  O138  1  0.24953700  0.03724300  0.79329000  1
  O  O139  1  0.16330550  0.53276450  0.55585400  1
  O  O140  1  0.15473800  0.94594400  0.51475200  1
  O  O141  1  0.30911500  0.14767300  0.09718100  1
  O  O142  1  0.24505250  0.69658550  0.91290000  1
  O  O143  1  0.16384700  0.95742100  0.64860300  1
  O  O144  1  0.33615300  0.54257900  0.35139700  1
  O  O145  1  0.25494750  0.80341450  0.08710000  1
  O  O146  1  0.19088500  0.35232700  0.90281900  1
  O  O147  1  0.34526200  0.55405600  0.48524800  1
  O  O148  1  0.33669450  0.96723550  0.44414600  1
  O  O149  1  0.25046300  0.46275700  0.20671000  1
  O  O150  1  0.24953700  0.96275700  0.29329000  1
  O  O151  1  0.08262300  0.81141600  0.78712300  1
  O  O152  1  0.16330550  0.46723550  0.05585400  1
  O  O153  1  0.15473800  0.05405600  0.01475200  1
  O  O154  1  0.03733700  0.55583400  0.69367300  1
  O  O155  1  0.24505250  0.30341450  0.41290000  1
  O  O156  1  0.16384700  0.04257900  0.14860300  1
  O  O157  1  0.19088500  0.64767300  0.40281900  1
  O  O158  1  0.04517300  0.76441000  0.93158700  1
  O  O159  1  0.00867500  0.17024400  0.86155600  1
  O  O160  1  0.08262300  0.18858400  0.28712300  1
  O  O161  1  0.03733700  0.44416600  0.19367300  1
  O  O162  1  0.04517300  0.23559000  0.43158700  1
  O  O163  1  0.00867500  0.82975600  0.36155600  1
