# generated using pymatgen
data_TlBS2
_symmetry_space_group_name_H-M   'P 1'
_cell_length_a   10.13023145
_cell_length_b   10.13023145
_cell_length_c   18.16540020
_cell_angle_alpha   90.00000000
_cell_angle_beta   90.00000000
_cell_angle_gamma   120.00000000
_symmetry_Int_Tables_number   1
_chemical_formula_structural   TlBS2
_chemical_formula_sum   'Tl18 B18 S36'
_cell_volume   1614.41185479
_cell_formula_units_Z   18
loop_
 _symmetry_equiv_pos_site_id
 _symmetry_equiv_pos_as_xyz
  1  'x, y, z'
loop_
 _atom_site_type_symbol
 _atom_site_label
 _atom_site_symmetry_multiplicity
 _atom_site_fract_x
 _atom_site_fract_y
 _atom_site_fract_z
 _atom_site_occupancy
  Tl  Tl0  1  0.06134667  0.53067333  0.25839233  1
  Tl  Tl1  1  0.46932667  0.53067333  0.25839233  1
  Tl  Tl2  1  0.46932667  0.93865333  0.25839233  1
  Tl  Tl3  1  0.60532000  0.80266000  0.07494100  1
  Tl  Tl4  1  0.19734000  0.80266000  0.07494100  1
  Tl  Tl5  1  0.19734000  0.39468000  0.07494100  1
  Tl  Tl6  1  0.72801333  0.86400667  0.59172567  1
  Tl  Tl7  1  0.13599333  0.86400667  0.59172567  1
  Tl  Tl8  1  0.13599333  0.27198667  0.59172567  1
  Tl  Tl9  1  0.27198667  0.13599333  0.40827433  1
  Tl  Tl10  1  0.86400667  0.13599333  0.40827433  1
  Tl  Tl11  1  0.86400667  0.72801333  0.40827433  1
  Tl  Tl12  1  0.39468000  0.19734000  0.92505900  1
  Tl  Tl13  1  0.80266000  0.19734000  0.92505900  1
  Tl  Tl14  1  0.80266000  0.60532000  0.92505900  1
  Tl  Tl15  1  0.93865333  0.46932667  0.74160767  1
  Tl  Tl16  1  0.53067333  0.46932667  0.74160767  1
  Tl  Tl17  1  0.53067333  0.06134667  0.74160767  1
  B  B18  1  0.23168300  0.76831700  0.86881000  1
  B  B19  1  0.23168300  0.46336600  0.86881000  1
  B  B20  1  0.53663400  0.76831700  0.86881000  1
  B  B21  1  0.43498367  0.86996733  0.46452333  1
  B  B22  1  0.13003267  0.56501633  0.46452333  1
  B  B23  1  0.43498367  0.56501633  0.46452333  1
  B  B24  1  0.89834967  0.10165033  0.20214333  1
  B  B25  1  0.89834967  0.79669933  0.20214333  1
  B  B26  1  0.20330067  0.10165033  0.20214333  1
  B  B27  1  0.10165033  0.20330067  0.79785667  1
  B  B28  1  0.79669933  0.89834967  0.79785667  1
  B  B29  1  0.10165033  0.89834967  0.79785667  1
  B  B30  1  0.56501633  0.43498367  0.53547667  1
  B  B31  1  0.56501633  0.13003267  0.53547667  1
  B  B32  1  0.86996733  0.43498367  0.53547667  1
  B  B33  1  0.76831700  0.53663400  0.13119000  1
  B  B34  1  0.46336600  0.23168300  0.13119000  1
  B  B35  1  0.76831700  0.23168300  0.13119000  1
  S  S36  1  0.53881700  0.46118300  0.42869500  1
  S  S37  1  0.92236600  0.46118300  0.42869500  1
  S  S38  1  0.53881700  0.07763400  0.42869500  1
  S  S39  1  0.74430067  0.87215033  0.90463833  1
  S  S40  1  0.12784967  0.25569933  0.90463833  1
  S  S41  1  0.12784967  0.87215033  0.90463833  1
  S  S42  1  0.54401533  0.77200767  0.43261667  1
  S  S43  1  0.22799233  0.45598467  0.43261667  1
  S  S44  1  0.22799233  0.77200767  0.43261667  1
  S  S45  1  0.43867433  0.56132567  0.90071667  1
  S  S46  1  0.12265133  0.56132567  0.90071667  1
  S  S47  1  0.43867433  0.87734867  0.90071667  1
  S  S48  1  0.20548367  0.79451633  0.76202833  1
  S  S49  1  0.58903267  0.79451633  0.76202833  1
  S  S50  1  0.20548367  0.41096733  0.76202833  1
  S  S51  1  0.41096733  0.20548367  0.23797167  1
  S  S52  1  0.79451633  0.58903267  0.23797167  1
  S  S53  1  0.79451633  0.20548367  0.23797167  1
  S  S54  1  0.21068200  0.10534100  0.76595000  1
  S  S55  1  0.89465900  0.78931800  0.76595000  1
  S  S56  1  0.89465900  0.10534100  0.76595000  1
  S  S57  1  0.10534100  0.89465900  0.23405000  1
  S  S58  1  0.78931800  0.89465900  0.23405000  1
  S  S59  1  0.10534100  0.21068200  0.23405000  1
  S  S60  1  0.87215033  0.12784967  0.09536167  1
  S  S61  1  0.25569933  0.12784967  0.09536167  1
  S  S62  1  0.87215033  0.74430067  0.09536167  1
  S  S63  1  0.07763400  0.53881700  0.57130500  1
  S  S64  1  0.46118300  0.92236600  0.57130500  1
  S  S65  1  0.46118300  0.53881700  0.57130500  1
  S  S66  1  0.87734867  0.43867433  0.09928333  1
  S  S67  1  0.56132567  0.12265133  0.09928333  1
  S  S68  1  0.56132567  0.43867433  0.09928333  1
  S  S69  1  0.77200767  0.22799233  0.56738333  1
  S  S70  1  0.45598467  0.22799233  0.56738333  1
  S  S71  1  0.77200767  0.54401533  0.56738333  1
