# generated using pymatgen
data_CdGeO3
_symmetry_space_group_name_H-M   'P 1'
_cell_length_a   5.19441148
_cell_length_b   5.19441148
_cell_length_c   15.25692587
_cell_angle_alpha   90.00000000
_cell_angle_beta   90.00000000
_cell_angle_gamma   120.00000000
_symmetry_Int_Tables_number   1
_chemical_formula_structural   CdGeO3
_chemical_formula_sum   'Cd6 Ge6 O18'
_cell_volume   356.50889314
_cell_formula_units_Z   6
loop_
 _symmetry_equiv_pos_site_id
 _symmetry_equiv_pos_as_xyz
  1  'x, y, z'
loop_
 _atom_site_type_symbol
 _atom_site_label
 _atom_site_symmetry_multiplicity
 _atom_site_fract_x
 _atom_site_fract_y
 _atom_site_fract_z
 _atom_site_occupancy
  Cd  Cd0  1  0.33333333  0.66666667  0.29923867  1
  Cd  Cd1  1  0.33333333  0.66666667  0.03409467  1
  Cd  Cd2  1  0.00000000  0.00000000  0.63257200  1
  Cd  Cd3  1  0.00000000  0.00000000  0.36742800  1
  Cd  Cd4  1  0.66666667  0.33333333  0.96590533  1
  Cd  Cd5  1  0.66666667  0.33333333  0.70076133  1
  Ge  Ge6  1  0.66666667  0.33333333  0.17380133  1
  Ge  Ge7  1  0.00000000  0.00000000  0.15953200  1
  Ge  Ge8  1  0.33333333  0.66666667  0.50713467  1
  Ge  Ge9  1  0.66666667  0.33333333  0.49286533  1
  Ge  Ge10  1  0.00000000  0.00000000  0.84046800  1
  Ge  Ge11  1  0.33333333  0.66666667  0.82619867  1
  O  O12  1  0.93932433  0.28338367  0.09562867  1
  O  O13  1  0.71661633  0.65594067  0.09562867  1
  O  O14  1  0.34405933  0.06067567  0.09562867  1
  O  O15  1  0.72734233  0.04994967  0.23770467  1
  O  O16  1  0.32260733  0.27265767  0.23770467  1
  O  O17  1  0.95005033  0.67739267  0.23770467  1
  O  O18  1  0.60599100  0.61671700  0.42896200  1
  O  O19  1  0.38328300  0.98927400  0.42896200  1
  O  O20  1  0.01072600  0.39400900  0.42896200  1
  O  O21  1  0.39400900  0.38328300  0.57103800  1
  O  O22  1  0.98927400  0.60599100  0.57103800  1
  O  O23  1  0.61671700  0.01072600  0.57103800  1
  O  O24  1  0.27265767  0.95005033  0.76229533  1
  O  O25  1  0.04994967  0.32260733  0.76229533  1
  O  O26  1  0.67739267  0.72734233  0.76229533  1
  O  O27  1  0.06067567  0.71661633  0.90437133  1
  O  O28  1  0.65594067  0.93932433  0.90437133  1
  O  O29  1  0.28338367  0.34405933  0.90437133  1
