# generated using pymatgen
data_Li4Mn5Cr2O12
_symmetry_space_group_name_H-M   'P 1'
_cell_length_a   5.14758200
_cell_length_b   9.11502900
_cell_length_c   10.15204503
_cell_angle_alpha   90.00000000
_cell_angle_beta   100.71519895
_cell_angle_gamma   90.00000000
_symmetry_Int_Tables_number   1
_chemical_formula_structural   Li4Mn5Cr2O12
_chemical_formula_sum   'Li8 Mn10 Cr4 O24'
_cell_volume   468.03194381
_cell_formula_units_Z   2
loop_
 _symmetry_equiv_pos_site_id
 _symmetry_equiv_pos_as_xyz
  1  'x, y, z'
loop_
 _atom_site_type_symbol
 _atom_site_label
 _atom_site_symmetry_multiplicity
 _atom_site_fract_x
 _atom_site_fract_y
 _atom_site_fract_z
 _atom_site_occupancy
  Li  Li0  1  0.00961500  0.08936600  0.26087100  1
  Li  Li1  1  0.49171500  0.07591900  0.73307200  1
  Li  Li2  1  0.76007600  0.41652800  0.49636700  1
  Li  Li3  1  0.50093900  0.41447700  0.73512200  1
  Li  Li4  1  0.99038500  0.58936600  0.73912900  1
  Li  Li5  1  0.50828500  0.57591900  0.26692800  1
  Li  Li6  1  0.23992400  0.91652800  0.50363300  1
  Li  Li7  1  0.49906100  0.91447700  0.26487800  1
  Mn  Mn8  1  0.25049900  0.08600400  0.00202300  1
  Mn  Mn9  1  0.74862000  0.07464300  0.50175600  1
  Mn  Mn10  1  0.99696900  0.24827500  0.73968500  1
  Mn  Mn11  1  0.24888000  0.42101600  0.99501400  1
  Mn  Mn12  1  0.51045700  0.26478000  0.25967100  1
  Mn  Mn13  1  0.25138000  0.57464300  0.49824400  1
  Mn  Mn14  1  0.74950100  0.58600400  0.99797700  1
  Mn  Mn15  1  0.00303100  0.74827500  0.26031500  1
  Mn  Mn16  1  0.48954300  0.76478000  0.74032900  1
  Mn  Mn17  1  0.75112000  0.92101600  0.00498600  1
  Cr  Cr18  1  0.24864000  0.24788600  0.49551700  1
  Cr  Cr19  1  0.75241000  0.25383800  0.00146200  1
  Cr  Cr20  1  0.24759000  0.75383800  0.99853800  1
  Cr  Cr21  1  0.75136000  0.74788600  0.50448300  1
  O  O22  1  0.10722300  0.09448500  0.60834300  1
  O  O23  1  0.87775200  0.08715400  0.89887600  1
  O  O24  1  0.12524800  0.23500400  0.11194300  1
  O  O25  1  0.87628900  0.22622200  0.38935700  1
  O  O26  1  0.60799600  0.10439200  0.11427000  1
  O  O27  1  0.39503300  0.08988400  0.38495300  1
  O  O28  1  0.14096700  0.41389300  0.61012300  1
  O  O29  1  0.61723600  0.22967100  0.61447300  1
  O  O30  1  0.89515500  0.40452600  0.88337600  1
  O  O31  1  0.38537900  0.26746600  0.88253700  1
  O  O32  1  0.60793700  0.42506000  0.10258600  1
  O  O33  1  0.12224800  0.58715400  0.10112400  1
  O  O34  1  0.38103700  0.41513200  0.39058300  1
  O  O35  1  0.89277700  0.59448500  0.39165700  1
  O  O36  1  0.12371100  0.72622200  0.61064300  1
  O  O37  1  0.60496700  0.58988400  0.61504700  1
  O  O38  1  0.87475200  0.73500400  0.88805700  1
  O  O39  1  0.39200400  0.60439200  0.88573000  1
  O  O40  1  0.10484500  0.90452600  0.11662400  1
  O  O41  1  0.61462100  0.76746600  0.11746300  1
  O  O42  1  0.38276400  0.72967100  0.38552700  1
  O  O43  1  0.85903300  0.91389300  0.38987700  1
  O  O44  1  0.61896300  0.91513200  0.60941700  1
  O  O45  1  0.39206300  0.92506000  0.89741400  1
