# generated using pymatgen
data_Ba3In(BO3)3
_symmetry_space_group_name_H-M   'P 1'
_cell_length_a   12.95899214
_cell_length_b   12.95899214
_cell_length_c   9.49129451
_cell_angle_alpha   90.00000000
_cell_angle_beta   90.00000000
_cell_angle_gamma   120.00000000
_symmetry_Int_Tables_number   1
_chemical_formula_structural   Ba3In(BO3)3
_chemical_formula_sum   'Ba18 In6 B18 O54'
_cell_volume   1380.37960520
_cell_formula_units_Z   6
loop_
 _symmetry_equiv_pos_site_id
 _symmetry_equiv_pos_as_xyz
  1  'x, y, z'
loop_
 _atom_site_type_symbol
 _atom_site_label
 _atom_site_symmetry_multiplicity
 _atom_site_fract_x
 _atom_site_fract_y
 _atom_site_fract_z
 _atom_site_occupancy
  Ba  Ba0  1  0.13704400  0.37182200  0.52792500  1
  Ba  Ba1  1  0.62817800  0.76522200  0.52792500  1
  Ba  Ba2  1  0.23477800  0.86295600  0.52792500  1
  Ba  Ba3  1  0.86295600  0.62817800  0.47207500  1
  Ba  Ba4  1  0.37182200  0.23477800  0.47207500  1
  Ba  Ba5  1  0.76522200  0.13704400  0.47207500  1
  Ba  Ba6  1  0.80371067  0.70515533  0.86125833  1
  Ba  Ba7  1  0.29484467  0.09855533  0.86125833  1
  Ba  Ba8  1  0.90144467  0.19628933  0.86125833  1
  Ba  Ba9  1  0.52962267  0.96151133  0.80540833  1
  Ba  Ba10  1  0.03848867  0.56811133  0.80540833  1
  Ba  Ba11  1  0.43188867  0.47037733  0.80540833  1
  Ba  Ba12  1  0.47037733  0.03848867  0.19459167  1
  Ba  Ba13  1  0.96151133  0.43188867  0.19459167  1
  Ba  Ba14  1  0.56811133  0.52962267  0.19459167  1
  Ba  Ba15  1  0.19628933  0.29484467  0.13874167  1
  Ba  Ba16  1  0.70515533  0.90144467  0.13874167  1
  Ba  Ba17  1  0.09855533  0.80371067  0.13874167  1
  In  In18  1  0.00000000  0.00000000  0.00000000  1
  In  In19  1  0.00000000  0.00000000  0.50000000  1
  In  In20  1  0.66666667  0.33333333  0.33333333  1
  In  In21  1  0.66666667  0.33333333  0.83333333  1
  In  In22  1  0.33333333  0.66666667  0.66666667  1
  In  In23  1  0.33333333  0.66666667  0.16666667  1
  B  B24  1  0.94353433  0.12950767  0.26446667  1
  B  B25  1  0.87049233  0.81402667  0.26446667  1
  B  B26  1  0.18597333  0.05646567  0.26446667  1
  B  B27  1  0.05646567  0.87049233  0.73553333  1
  B  B28  1  0.12950767  0.18597333  0.73553333  1
  B  B29  1  0.81402667  0.94353433  0.73553333  1
  B  B30  1  0.61020100  0.46284100  0.59780000  1
  B  B31  1  0.53715900  0.14736000  0.59780000  1
  B  B32  1  0.85264000  0.38979900  0.59780000  1
  B  B33  1  0.72313233  0.20382567  0.06886667  1
  B  B34  1  0.79617433  0.51930667  0.06886667  1
  B  B35  1  0.48069333  0.27686767  0.06886667  1
  B  B36  1  0.27686767  0.79617433  0.93113333  1
  B  B37  1  0.20382567  0.48069333  0.93113333  1
  B  B38  1  0.51930667  0.72313233  0.93113333  1
  B  B39  1  0.38979900  0.53715900  0.40220000  1
  B  B40  1  0.46284100  0.85264000  0.40220000  1
  B  B41  1  0.14736000  0.61020100  0.40220000  1
  O  O42  1  0.88275267  0.03072333  0.35374833  1
  O  O43  1  0.96927667  0.85202933  0.35374833  1
  O  O44  1  0.14797067  0.11724733  0.35374833  1
  O  O45  1  0.11724733  0.96927667  0.64625167  1
  O  O46  1  0.03072333  0.14797067  0.64625167  1
  O  O47  1  0.85202933  0.88275267  0.64625167  1
  O  O48  1  0.98661033  0.24414367  0.31411767  1
  O  O49  1  0.75585633  0.74246667  0.31411767  1
  O  O50  1  0.25753333  0.01338967  0.31411767  1
  O  O51  1  0.01338967  0.75585633  0.68588233  1
  O  O52  1  0.24414367  0.25753333  0.68588233  1
  O  O53  1  0.74246667  0.98661033  0.68588233  1
  O  O54  1  0.94902200  0.11174700  0.11947300  1
  O  O55  1  0.88825300  0.83727500  0.11947300  1
  O  O56  1  0.16272500  0.05097800  0.11947300  1
  O  O57  1  0.05097800  0.88825300  0.88052700  1
  O  O58  1  0.11174700  0.16272500  0.88052700  1
  O  O59  1  0.83727500  0.94902200  0.88052700  1
  O  O60  1  0.54941933  0.36405667  0.68708167  1
  O  O61  1  0.63594333  0.18536267  0.68708167  1
  O  O62  1  0.81463733  0.45058067  0.68708167  1
  O  O63  1  0.78391400  0.30261000  0.97958500  1
  O  O64  1  0.69739000  0.48130400  0.97958500  1
  O  O65  1  0.51869600  0.21608600  0.97958500  1
  O  O66  1  0.65327700  0.57747700  0.64745100  1
  O  O67  1  0.42252300  0.07580000  0.64745100  1
  O  O68  1  0.92420000  0.34672300  0.64745100  1
  O  O69  1  0.68005633  0.08918967  0.01921567  1
  O  O70  1  0.91081033  0.59086667  0.01921567  1
  O  O71  1  0.40913333  0.31994367  0.01921567  1
  O  O72  1  0.61568867  0.44508033  0.45280633  1
  O  O73  1  0.55491967  0.17060833  0.45280633  1
  O  O74  1  0.82939167  0.38431133  0.45280633  1
  O  O75  1  0.71764467  0.22158633  0.21386033  1
  O  O76  1  0.77841367  0.49605833  0.21386033  1
  O  O77  1  0.50394167  0.28235533  0.21386033  1
  O  O78  1  0.21608600  0.69739000  0.02041500  1
  O  O79  1  0.30261000  0.51869600  0.02041500  1
  O  O80  1  0.48130400  0.78391400  0.02041500  1
  O  O81  1  0.45058067  0.63594333  0.31291833  1
  O  O82  1  0.36405667  0.81463733  0.31291833  1
  O  O83  1  0.18536267  0.54941933  0.31291833  1
  O  O84  1  0.31994367  0.91081033  0.98078433  1
  O  O85  1  0.08918967  0.40913333  0.98078433  1
  O  O86  1  0.59086667  0.68005633  0.98078433  1
  O  O87  1  0.34672300  0.42252300  0.35254900  1
  O  O88  1  0.57747700  0.92420000  0.35254900  1
  O  O89  1  0.07580000  0.65327700  0.35254900  1
  O  O90  1  0.28235533  0.77841367  0.78613967  1
  O  O91  1  0.22158633  0.50394167  0.78613967  1
  O  O92  1  0.49605833  0.71764467  0.78613967  1
  O  O93  1  0.38431133  0.55491967  0.54719367  1
  O  O94  1  0.44508033  0.82939167  0.54719367  1
  O  O95  1  0.17060833  0.61568867  0.54719367  1
