# generated using pymatgen
data_Na2Ti9O19
_symmetry_space_group_name_H-M   'P 1'
_cell_length_a   12.53700000
_cell_length_b   3.79229000
_cell_length_c   15.89394799
_cell_angle_alpha   90.00000000
_cell_angle_beta   104.19398789
_cell_angle_gamma   90.00000000
_symmetry_Int_Tables_number   1
_chemical_formula_structural   Na2Ti9O19
_chemical_formula_sum   'Na4 Ti18 O38'
_cell_volume   732.59139763
_cell_formula_units_Z   2
loop_
 _symmetry_equiv_pos_site_id
 _symmetry_equiv_pos_as_xyz
  1  'x, y, z'
loop_
 _atom_site_type_symbol
 _atom_site_label
 _atom_site_symmetry_multiplicity
 _atom_site_fract_x
 _atom_site_fract_y
 _atom_site_fract_z
 _atom_site_occupancy
  Na  Na0  1  0.00031400  0.00000000  0.99970000  1
  Na  Na1  1  0.21176700  0.50000000  0.49861200  1
  Na  Na2  1  0.50031400  0.50000000  0.99970000  1
  Na  Na3  1  0.71176700  0.00000000  0.49861200  1
  Ti  Ti4  1  0.78663900  0.00000000  0.29751800  1
  Ti  Ti5  1  0.70050600  0.50000000  0.11959900  1
  Ti  Ti6  1  0.91633000  0.00000000  0.70075700  1
  Ti  Ti7  1  0.10625900  0.00000000  0.86800700  1
  Ti  Ti8  1  0.99651700  0.00000000  0.49982700  1
  Ti  Ti9  1  0.89513700  0.00000000  0.13182400  1
  Ti  Ti10  1  0.08687200  0.00000000  0.30046600  1
  Ti  Ti11  1  0.30029300  0.50000000  0.88039900  1
  Ti  Ti12  1  0.21632300  0.00000000  0.70142800  1
  Ti  Ti13  1  0.28663900  0.50000000  0.29751800  1
  Ti  Ti14  1  0.20050600  0.00000000  0.11959900  1
  Ti  Ti15  1  0.41633000  0.50000000  0.70075700  1
  Ti  Ti16  1  0.60625900  0.50000000  0.86800700  1
  Ti  Ti17  1  0.49651700  0.50000000  0.49982700  1
  Ti  Ti18  1  0.39513700  0.50000000  0.13182400  1
  Ti  Ti19  1  0.58687200  0.50000000  0.30046600  1
  Ti  Ti20  1  0.80029300  0.00000000  0.88039900  1
  Ti  Ti21  1  0.71632300  0.50000000  0.70142800  1
  O  O22  1  0.66293300  0.50000000  0.00395600  1
  O  O23  1  0.87759000  0.50000000  0.70760200  1
  O  O24  1  0.74666100  0.50000000  0.26937200  1
  O  O25  1  0.95497600  0.00000000  0.85980400  1
  O  O26  1  0.73171300  0.00000000  0.14691000  1
  O  O27  1  0.90934000  0.00000000  0.58851300  1
  O  O28  1  0.85284900  0.00000000  0.40918600  1
  O  O29  1  0.86208700  0.50000000  0.12590500  1
  O  O30  1  0.92860100  0.00000000  0.25846100  1
  O  O31  1  0.00835300  0.50000000  0.50016300  1
  O  O32  1  0.33783600  0.50000000  0.99611800  1
  O  O33  1  0.07398600  0.00000000  0.74163700  1
  O  O34  1  0.13897000  0.50000000  0.87422000  1
  O  O35  1  0.15322800  0.00000000  0.59008700  1
  O  O36  1  0.09573100  0.00000000  0.41214700  1
  O  O37  1  0.26977300  0.00000000  0.85387000  1
  O  O38  1  0.04615400  0.00000000  0.13963000  1
  O  O39  1  0.25556000  0.50000000  0.72982400  1
  O  O40  1  0.12668500  0.50000000  0.29445700  1
  O  O41  1  0.16293300  0.00000000  0.00395600  1
  O  O42  1  0.37759000  0.00000000  0.70760200  1
  O  O43  1  0.24666100  0.00000000  0.26937200  1
  O  O44  1  0.45497600  0.50000000  0.85980400  1
  O  O45  1  0.23171300  0.50000000  0.14691000  1
  O  O46  1  0.40934000  0.50000000  0.58851300  1
  O  O47  1  0.35284900  0.50000000  0.40918600  1
  O  O48  1  0.36208700  0.00000000  0.12590500  1
  O  O49  1  0.42860100  0.50000000  0.25846100  1
  O  O50  1  0.50835300  0.00000000  0.50016300  1
  O  O51  1  0.83783600  0.00000000  0.99611800  1
  O  O52  1  0.57398600  0.50000000  0.74163700  1
  O  O53  1  0.63897000  0.00000000  0.87422000  1
  O  O54  1  0.65322800  0.50000000  0.59008700  1
  O  O55  1  0.59573100  0.50000000  0.41214700  1
  O  O56  1  0.76977300  0.50000000  0.85387000  1
  O  O57  1  0.54615400  0.50000000  0.13963000  1
  O  O58  1  0.75556000  0.00000000  0.72982400  1
  O  O59  1  0.62668500  0.00000000  0.29445700  1
