# generated using pymatgen
data_NaSi2N3
_symmetry_space_group_name_H-M   'P 1'
_cell_length_a   5.53546200
_cell_length_b   9.52465800
_cell_length_c   4.91306500
_cell_angle_alpha   90.00000000
_cell_angle_beta   90.00000000
_cell_angle_gamma   90.00000000
_symmetry_Int_Tables_number   1
_chemical_formula_structural   NaSi2N3
_chemical_formula_sum   'Na4 Si8 N12'
_cell_volume   259.03340486
_cell_formula_units_Z   4
loop_
 _symmetry_equiv_pos_site_id
 _symmetry_equiv_pos_as_xyz
  1  'x, y, z'
loop_
 _atom_site_type_symbol
 _atom_site_label
 _atom_site_symmetry_multiplicity
 _atom_site_fract_x
 _atom_site_fract_y
 _atom_site_fract_z
 _atom_site_occupancy
  Na  Na0  1  0.33724100  0.00000000  0.51392500  1
  Na  Na1  1  0.66275900  0.00000000  0.01392500  1
  Na  Na2  1  0.83724100  0.50000000  0.51392500  1
  Na  Na3  1  0.16275900  0.50000000  0.01392500  1
  Si  Si4  1  0.65338050  0.32934550  0.98827800  1
  Si  Si5  1  0.34661950  0.67065450  0.48827800  1
  Si  Si6  1  0.34661950  0.32934550  0.48827800  1
  Si  Si7  1  0.65338050  0.67065450  0.98827800  1
  Si  Si8  1  0.15338050  0.82934550  0.98827800  1
  Si  Si9  1  0.84661950  0.17065450  0.48827800  1
  Si  Si10  1  0.84661950  0.82934550  0.48827800  1
  Si  Si11  1  0.15338050  0.17065450  0.98827800  1
  N  N12  1  0.22636400  0.00000000  0.03089500  1
  N  N13  1  0.77363600  0.00000000  0.53089500  1
  N  N14  1  0.62536450  0.71944750  0.64081200  1
  N  N15  1  0.62536450  0.28055250  0.64081200  1
  N  N16  1  0.37463550  0.71944750  0.14081200  1
  N  N17  1  0.37463550  0.28055250  0.14081200  1
  N  N18  1  0.72636400  0.50000000  0.03089500  1
  N  N19  1  0.27363600  0.50000000  0.53089500  1
  N  N20  1  0.12536450  0.21944750  0.64081200  1
  N  N21  1  0.12536450  0.78055250  0.64081200  1
  N  N22  1  0.87463550  0.21944750  0.14081200  1
  N  N23  1  0.87463550  0.78055250  0.14081200  1
