# generated using pymatgen
data_Ta6Pb4O19
_symmetry_space_group_name_H-M   'P 1'
_cell_length_a   7.51870000
_cell_length_b   10.65395800
_cell_length_c   22.58388000
_cell_angle_alpha   90.00000000
_cell_angle_beta   90.00000000
_cell_angle_gamma   90.00000000
_symmetry_Int_Tables_number   1
_chemical_formula_structural   Ta6Pb4O19
_chemical_formula_sum   'Ta24 Pb16 O76'
_cell_volume   1809.05718164
_cell_formula_units_Z   4
loop_
 _symmetry_equiv_pos_site_id
 _symmetry_equiv_pos_as_xyz
  1  'x, y, z'
loop_
 _atom_site_type_symbol
 _atom_site_label
 _atom_site_symmetry_multiplicity
 _atom_site_fract_x
 _atom_site_fract_y
 _atom_site_fract_z
 _atom_site_occupancy
  Ta  Ta0  1  0.00000000  0.99719150  0.16525150  1
  Ta  Ta1  1  0.00000000  0.00000000  0.00000000  1
  Ta  Ta2  1  0.25000000  0.25000000  0.08192000  1
  Ta  Ta3  1  0.25000000  0.25000000  0.41808000  1
  Ta  Ta4  1  0.75000000  0.25000000  0.08192000  1
  Ta  Ta5  1  0.75000000  0.25000000  0.41808000  1
  Ta  Ta6  1  0.50000000  0.50280850  0.16525150  1
  Ta  Ta7  1  0.50000000  0.50280850  0.33474850  1
  Ta  Ta8  1  0.50000000  0.50000000  0.00000000  1
  Ta  Ta9  1  0.75000000  0.75000000  0.25000000  1
  Ta  Ta10  1  0.25000000  0.75000000  0.25000000  1
  Ta  Ta11  1  0.00000000  0.99719150  0.33474850  1
  Ta  Ta12  1  0.50000000  0.49719150  0.66525150  1
  Ta  Ta13  1  0.50000000  0.50000000  0.50000000  1
  Ta  Ta14  1  0.75000000  0.75000000  0.58192000  1
  Ta  Ta15  1  0.75000000  0.75000000  0.91808000  1
  Ta  Ta16  1  0.25000000  0.75000000  0.58192000  1
  Ta  Ta17  1  0.25000000  0.75000000  0.91808000  1
  Ta  Ta18  1  0.00000000  0.00280850  0.66525150  1
  Ta  Ta19  1  0.00000000  0.00280850  0.83474850  1
  Ta  Ta20  1  0.00000000  0.00000000  0.50000000  1
  Ta  Ta21  1  0.25000000  0.25000000  0.75000000  1
  Ta  Ta22  1  0.75000000  0.25000000  0.75000000  1
  Ta  Ta23  1  0.50000000  0.49719150  0.83474850  1
  Pb  Pb24  1  0.50000000  0.98365000  0.16613400  1
  Pb  Pb25  1  0.50000000  0.00000000  0.00000000  1
  Pb  Pb26  1  0.25000000  0.25000000  0.25000000  1
  Pb  Pb27  1  0.75000000  0.25000000  0.25000000  1
  Pb  Pb28  1  0.00000000  0.51635000  0.33386600  1
  Pb  Pb29  1  0.00000000  0.51635000  0.16613400  1
  Pb  Pb30  1  0.00000000  0.50000000  0.00000000  1
  Pb  Pb31  1  0.50000000  0.98365000  0.33386600  1
  Pb  Pb32  1  0.00000000  0.48365000  0.66613400  1
  Pb  Pb33  1  0.00000000  0.50000000  0.50000000  1
  Pb  Pb34  1  0.75000000  0.75000000  0.75000000  1
  Pb  Pb35  1  0.25000000  0.75000000  0.75000000  1
  Pb  Pb36  1  0.50000000  0.01635000  0.83386600  1
  Pb  Pb37  1  0.50000000  0.01635000  0.66613400  1
  Pb  Pb38  1  0.50000000  0.00000000  0.50000000  1
  Pb  Pb39  1  0.00000000  0.48365000  0.83386600  1
  O  O40  1  0.69531750  0.37916650  0.47870050  1
  O  O41  1  0.30468250  0.37916650  0.47870050  1
  O  O42  1  0.00000000  0.94504700  0.08365900  1
  O  O43  1  0.50000000  0.09245600  0.25000000  1
  O  O44  1  0.19531750  0.12083350  0.02129950  1
  O  O45  1  0.80882550  0.12658550  0.14659950  1
  O  O46  1  0.80468250  0.12083350  0.02129950  1
  O  O47  1  0.19117450  0.12658550  0.14659950  1
  O  O48  1  0.50000000  0.18495000  0.08079000  1
  O  O49  1  0.00000000  0.31505000  0.08079000  1
  O  O50  1  0.00000000  0.31505000  0.41921000  1
  O  O51  1  0.69117450  0.37341450  0.35340050  1
  O  O52  1  0.30882550  0.37341450  0.14659950  1
  O  O53  1  0.69531750  0.37916650  0.02129950  1
  O  O54  1  0.30468250  0.37916650  0.02129950  1
  O  O55  1  0.69117450  0.37341450  0.14659950  1
  O  O56  1  0.00000000  0.40754400  0.25000000  1
  O  O57  1  0.30882550  0.37341450  0.35340050  1
  O  O58  1  0.50000000  0.43108300  0.25000000  1
  O  O59  1  0.50000000  0.55495300  0.08365900  1
  O  O60  1  0.50000000  0.55495300  0.41634100  1
  O  O61  1  0.69059550  0.62251350  0.18879450  1
  O  O62  1  0.69059550  0.62251350  0.31120550  1
  O  O63  1  0.30940450  0.62251350  0.18879450  1
  O  O64  1  0.80468250  0.12083350  0.47870050  1
  O  O65  1  0.19531750  0.12083350  0.47870050  1
  O  O66  1  0.30940450  0.62251350  0.31120550  1
  O  O67  1  0.00000000  0.68508200  0.25000000  1
  O  O68  1  0.50000000  0.81491800  0.25000000  1
  O  O69  1  0.80940450  0.87748650  0.31120550  1
  O  O70  1  0.19059550  0.87748650  0.31120550  1
  O  O71  1  0.80940450  0.87748650  0.18879450  1
  O  O72  1  0.19059550  0.87748650  0.18879450  1
  O  O73  1  0.00000000  0.94504700  0.41634100  1
  O  O74  1  0.00000000  0.06891700  0.25000000  1
  O  O75  1  0.19117450  0.12658550  0.35340050  1
  O  O76  1  0.80882550  0.12658550  0.35340050  1
  O  O77  1  0.50000000  0.18495000  0.41921000  1
  O  O78  1  0.19531750  0.87916650  0.97870050  1
  O  O79  1  0.80468250  0.87916650  0.97870050  1
  O  O80  1  0.50000000  0.44504700  0.58365900  1
  O  O81  1  0.00000000  0.59245600  0.75000000  1
  O  O82  1  0.69531750  0.62083350  0.52129950  1
  O  O83  1  0.30882550  0.62658550  0.64659950  1
  O  O84  1  0.30468250  0.62083350  0.52129950  1
  O  O85  1  0.69117450  0.62658550  0.64659950  1
  O  O86  1  0.00000000  0.68495000  0.58079000  1
  O  O87  1  0.50000000  0.81505000  0.58079000  1
  O  O88  1  0.50000000  0.81505000  0.91921000  1
  O  O89  1  0.19117450  0.87341450  0.85340050  1
  O  O90  1  0.80882550  0.87341450  0.64659950  1
  O  O91  1  0.19531750  0.87916650  0.52129950  1
  O  O92  1  0.80468250  0.87916650  0.52129950  1
  O  O93  1  0.19117450  0.87341450  0.64659950  1
  O  O94  1  0.50000000  0.90754400  0.75000000  1
  O  O95  1  0.80882550  0.87341450  0.85340050  1
  O  O96  1  0.00000000  0.93108300  0.75000000  1
  O  O97  1  0.00000000  0.05495300  0.58365900  1
  O  O98  1  0.00000000  0.05495300  0.91634100  1
  O  O99  1  0.19059550  0.12251350  0.68879450  1
  O  O100  1  0.19059550  0.12251350  0.81120550  1
  O  O101  1  0.80940450  0.12251350  0.68879450  1
  O  O102  1  0.30468250  0.62083350  0.97870050  1
  O  O103  1  0.69531750  0.62083350  0.97870050  1
  O  O104  1  0.80940450  0.12251350  0.81120550  1
  O  O105  1  0.50000000  0.18508200  0.75000000  1
  O  O106  1  0.00000000  0.31491800  0.75000000  1
  O  O107  1  0.30940450  0.37748650  0.81120550  1
  O  O108  1  0.69059550  0.37748650  0.81120550  1
  O  O109  1  0.30940450  0.37748650  0.68879450  1
  O  O110  1  0.69059550  0.37748650  0.68879450  1
  O  O111  1  0.50000000  0.44504700  0.91634100  1
  O  O112  1  0.50000000  0.56891700  0.75000000  1
  O  O113  1  0.69117450  0.62658550  0.85340050  1
  O  O114  1  0.30882550  0.62658550  0.85340050  1
  O  O115  1  0.00000000  0.68495000  0.91921000  1
