# generated using pymatgen
data_Li2MnSiO4
_symmetry_space_group_name_H-M   'P 1'
_cell_length_a   5.07527837
_cell_length_b   5.51214852
_cell_length_c   8.14109542
_cell_angle_alpha   90.00000000
_cell_angle_beta   128.40752644
_cell_angle_gamma   90.00000000
_symmetry_Int_Tables_number   1
_chemical_formula_structural   Li2MnSiO4
_chemical_formula_sum   'Li4 Mn2 Si2 O8'
_cell_volume   178.46975263
_cell_formula_units_Z   2
loop_
 _symmetry_equiv_pos_site_id
 _symmetry_equiv_pos_as_xyz
  1  'x, y, z'
loop_
 _atom_site_type_symbol
 _atom_site_label
 _atom_site_symmetry_multiplicity
 _atom_site_fract_x
 _atom_site_fract_y
 _atom_site_fract_z
 _atom_site_occupancy
  Li  Li0  1  0.24846850  0.18359400  0.74924200  1
  Li  Li1  1  0.24846850  0.81640600  0.24924200  1
  Li  Li2  1  0.50041350  0.34840450  0.50161850  1
  Li  Li3  1  0.50041350  0.65159550  0.00161850  1
  Mn  Mn4  1  0.75307500  0.83298100  0.75562150  1
  Mn  Mn5  1  0.75307500  0.16701900  0.25562150  1
  Si  Si6  1  0.00557350  0.32927450  0.00091550  1
  Si  Si7  1  0.00557350  0.67072550  0.50091550  1
  O  O8  1  0.90197150  0.61181550  0.00687350  1
  O  O9  1  0.90197150  0.38818450  0.50687350  1
  O  O10  1  0.67926950  0.19400300  0.78629100  1
  O  O11  1  0.67926950  0.80599700  0.28629100  1
  O  O12  1  0.12365550  0.82047650  0.71473850  1
  O  O13  1  0.12365550  0.17952350  0.21473850  1
  O  O14  1  0.32585050  0.67356450  0.49537650  1
  O  O15  1  0.32585050  0.32643550  0.99537650  1
