# generated using pymatgen
data_Cs2SiP2
_symmetry_space_group_name_H-M   'P 1'
_cell_length_a   6.23114400
_cell_length_b   7.67701200
_cell_length_c   14.36507800
_cell_angle_alpha   90.00000000
_cell_angle_beta   90.00000000
_cell_angle_gamma   90.00000000
_symmetry_Int_Tables_number   1
_chemical_formula_structural   Cs2SiP2
_chemical_formula_sum   'Cs8 Si4 P8'
_cell_volume   687.17601997
_cell_formula_units_Z   4
loop_
 _symmetry_equiv_pos_site_id
 _symmetry_equiv_pos_as_xyz
  1  'x, y, z'
loop_
 _atom_site_type_symbol
 _atom_site_label
 _atom_site_symmetry_multiplicity
 _atom_site_fract_x
 _atom_site_fract_y
 _atom_site_fract_z
 _atom_site_occupancy
  Cs  Cs0  1  0.50000000  0.32812350  0.35366850  1
  Cs  Cs1  1  0.00000000  0.17187650  0.14633150  1
  Cs  Cs2  1  0.50000000  0.82812350  0.14633150  1
  Cs  Cs3  1  0.00000000  0.67187650  0.35366850  1
  Cs  Cs4  1  0.00000000  0.82812350  0.85366850  1
  Cs  Cs5  1  0.50000000  0.67187650  0.64633150  1
  Cs  Cs6  1  0.00000000  0.32812350  0.64633150  1
  Cs  Cs7  1  0.50000000  0.17187650  0.85366850  1
  Si  Si8  1  0.25000000  0.50000000  0.00000000  1
  Si  Si9  1  0.75000000  0.50000000  0.00000000  1
  Si  Si10  1  0.75000000  0.00000000  0.50000000  1
  Si  Si11  1  0.25000000  0.00000000  0.50000000  1
  P  P12  1  0.00000000  0.14727900  0.41276400  1
  P  P13  1  0.00000000  0.64727900  0.08723600  1
  P  P14  1  0.50000000  0.85272100  0.41276400  1
  P  P15  1  0.50000000  0.35272100  0.08723600  1
  P  P16  1  0.50000000  0.64727900  0.91276400  1
  P  P17  1  0.50000000  0.14727900  0.58723600  1
  P  P18  1  0.00000000  0.35272100  0.91276400  1
  P  P19  1  0.00000000  0.85272100  0.58723600  1
