# generated using pymatgen
data_Cs2As2Pd
_symmetry_space_group_name_H-M   'P 1'
_cell_length_a   7.19028200
_cell_length_b   15.32259000
_cell_length_c   6.47876100
_cell_angle_alpha   90.00000000
_cell_angle_beta   90.00000000
_cell_angle_gamma   90.00000000
_symmetry_Int_Tables_number   1
_chemical_formula_structural   Cs2As2Pd
_chemical_formula_sum   'Cs8 As8 Pd4'
_cell_volume   713.78934983
_cell_formula_units_Z   4
loop_
 _symmetry_equiv_pos_site_id
 _symmetry_equiv_pos_as_xyz
  1  'x, y, z'
loop_
 _atom_site_type_symbol
 _atom_site_label
 _atom_site_symmetry_multiplicity
 _atom_site_fract_x
 _atom_site_fract_y
 _atom_site_fract_z
 _atom_site_occupancy
  Cs  Cs0  1  0.00000000  0.20779300  0.75000000  1
  Cs  Cs1  1  0.50000000  0.29220700  0.25000000  1
  Cs  Cs2  1  0.50000000  0.08396300  0.75000000  1
  Cs  Cs3  1  0.00000000  0.41603700  0.25000000  1
  Cs  Cs4  1  0.50000000  0.70779300  0.75000000  1
  Cs  Cs5  1  0.00000000  0.79220700  0.25000000  1
  Cs  Cs6  1  0.00000000  0.58396300  0.75000000  1
  Cs  Cs7  1  0.50000000  0.91603700  0.25000000  1
  As  As8  1  0.16901000  0.10028500  0.25000000  1
  As  As9  1  0.33099000  0.39971500  0.75000000  1
  As  As10  1  0.66901000  0.39971500  0.75000000  1
  As  As11  1  0.83099000  0.10028500  0.25000000  1
  As  As12  1  0.66901000  0.60028500  0.25000000  1
  As  As13  1  0.83099000  0.89971500  0.75000000  1
  As  As14  1  0.16901000  0.89971500  0.75000000  1
  As  As15  1  0.33099000  0.60028500  0.25000000  1
  Pd  Pd16  1  0.00000000  0.00000000  0.50000000  1
  Pd  Pd17  1  0.00000000  0.00000000  0.00000000  1
  Pd  Pd18  1  0.50000000  0.50000000  0.50000000  1
  Pd  Pd19  1  0.50000000  0.50000000  0.00000000  1
