# generated using pymatgen
data_V3(O2F)2
_symmetry_space_group_name_H-M   'P 1'
_cell_length_a   6.91860200
_cell_length_b   6.42420000
_cell_length_c   9.14123090
_cell_angle_alpha   90.00000000
_cell_angle_beta   90.11339158
_cell_angle_gamma   90.00000000
_symmetry_Int_Tables_number   1
_chemical_formula_structural   V3(O2F)2
_chemical_formula_sum   'V12 O16 F8'
_cell_volume   406.29476792
_cell_formula_units_Z   4
loop_
 _symmetry_equiv_pos_site_id
 _symmetry_equiv_pos_as_xyz
  1  'x, y, z'
loop_
 _atom_site_type_symbol
 _atom_site_label
 _atom_site_symmetry_multiplicity
 _atom_site_fract_x
 _atom_site_fract_y
 _atom_site_fract_z
 _atom_site_occupancy
  V  V0  1  0.99676700  0.00000000  0.67328300  1
  V  V1  1  0.00000000  0.00000000  0.00000000  1
  V  V2  1  0.00323300  0.00000000  0.32671700  1
  V  V3  1  0.54408200  0.00000000  0.83448300  1
  V  V4  1  0.50000000  0.00000000  0.50000000  1
  V  V5  1  0.45591800  0.00000000  0.16551700  1
  V  V6  1  0.49676700  0.50000000  0.67328300  1
  V  V7  1  0.50000000  0.50000000  0.00000000  1
  V  V8  1  0.50323300  0.50000000  0.32671700  1
  V  V9  1  0.04408200  0.50000000  0.83448300  1
  V  V10  1  0.00000000  0.50000000  0.50000000  1
  V  V11  1  0.95591800  0.50000000  0.16551700  1
  O  O12  1  0.19673100  0.00000000  0.16369000  1
  O  O13  1  0.50446300  0.80365800  0.66975100  1
  O  O14  1  0.50000000  0.80790100  0.00000000  1
  O  O15  1  0.49553700  0.80365800  0.33024900  1
  O  O16  1  0.50446300  0.19634200  0.66975100  1
  O  O17  1  0.50000000  0.19209900  0.00000000  1
  O  O18  1  0.49553700  0.19634200  0.33024900  1
  O  O19  1  0.80326900  0.00000000  0.83631000  1
  O  O20  1  0.69673100  0.50000000  0.16369000  1
  O  O21  1  0.00446300  0.30365800  0.66975100  1
  O  O22  1  0.00000000  0.30790100  0.00000000  1
  O  O23  1  0.99553700  0.30365800  0.33024900  1
  O  O24  1  0.00446300  0.69634200  0.66975100  1
  O  O25  1  0.00000000  0.69209900  0.00000000  1
  O  O26  1  0.99553700  0.69634200  0.33024900  1
  O  O27  1  0.30326900  0.50000000  0.83631000  1
  F  F28  1  0.20161100  0.00000000  0.83534200  1
  F  F29  1  0.19407500  0.00000000  0.50132000  1
  F  F30  1  0.80592500  0.00000000  0.49868000  1
  F  F31  1  0.79838900  0.00000000  0.16465800  1
  F  F32  1  0.70161100  0.50000000  0.83534200  1
  F  F33  1  0.69407500  0.50000000  0.50132000  1
  F  F34  1  0.30592500  0.50000000  0.49868000  1
  F  F35  1  0.29838900  0.50000000  0.16465800  1
