# generated using pymatgen
data_Li6VFe5O12
_symmetry_space_group_name_H-M   'P 1'
_cell_length_a   5.08175150
_cell_length_b   8.80559231
_cell_length_c   10.09719521
_cell_angle_alpha   90.00000000
_cell_angle_beta   98.00927455
_cell_angle_gamma   90.00000000
_symmetry_Int_Tables_number   1
_chemical_formula_structural   Li6VFe5O12
_chemical_formula_sum   'Li12 V2 Fe10 O24'
_cell_volume   447.42025418
_cell_formula_units_Z   2
loop_
 _symmetry_equiv_pos_site_id
 _symmetry_equiv_pos_as_xyz
  1  'x, y, z'
loop_
 _atom_site_type_symbol
 _atom_site_label
 _atom_site_symmetry_multiplicity
 _atom_site_fract_x
 _atom_site_fract_y
 _atom_site_fract_z
 _atom_site_occupancy
  Li  Li0  1  0.62276400  0.66707300  0.75814800  1
  Li  Li1  1  0.11581100  0.83187500  0.75238200  1
  Li  Li2  1  0.89220100  0.49992600  0.24966400  1
  Li  Li3  1  0.60779900  0.99992600  0.75033600  1
  Li  Li4  1  0.88418900  0.83187500  0.24761800  1
  Li  Li5  1  0.37723600  0.66707300  0.24185200  1
  Li  Li6  1  0.12276400  0.16707300  0.75814800  1
  Li  Li7  1  0.61581100  0.33187500  0.75238200  1
  Li  Li8  1  0.39220100  0.99992600  0.24966400  1
  Li  Li9  1  0.10779900  0.49992600  0.75033600  1
  Li  Li10  1  0.38418900  0.33187500  0.24761800  1
  Li  Li11  1  0.87723600  0.16707300  0.24185200  1
  V  V12  1  0.50000000  0.49965200  0.00000000  1
  V  V13  1  0.00000000  0.99965200  0.00000000  1
  Fe  Fe14  1  0.50000000  0.99848050  0.50000000  1
  Fe  Fe15  1  0.00000000  0.66426950  0.00000000  1
  Fe  Fe16  1  0.50000000  0.83525750  0.00000000  1
  Fe  Fe17  1  0.00000000  0.83208700  0.50000000  1
  Fe  Fe18  1  0.50000000  0.66857000  0.50000000  1
  Fe  Fe19  1  0.00000000  0.49848050  0.50000000  1
  Fe  Fe20  1  0.50000000  0.16426950  0.00000000  1
  Fe  Fe21  1  0.00000000  0.33525750  0.00000000  1
  Fe  Fe22  1  0.50000000  0.33208700  0.50000000  1
  Fe  Fe23  1  0.00000000  0.16857000  0.50000000  1
  O  O24  1  0.14036750  0.99423850  0.39337800  1
  O  O25  1  0.80703300  0.49984500  0.88420700  1
  O  O26  1  0.87611600  0.66561700  0.60960900  1
  O  O27  1  0.36611900  0.83600700  0.61133800  1
  O  O28  1  0.30684450  0.66529850  0.88620500  1
  O  O29  1  0.80626850  0.83320950  0.88675900  1
  O  O30  1  0.69315550  0.66529850  0.11379500  1
  O  O31  1  0.19373150  0.83320950  0.11324100  1
  O  O32  1  0.12388400  0.66561700  0.39039100  1
  O  O33  1  0.63388100  0.83600700  0.38866200  1
  O  O34  1  0.19296700  0.49984500  0.11579300  1
  O  O35  1  0.85963250  0.99423850  0.60662200  1
  O  O36  1  0.64036750  0.49423850  0.39337800  1
  O  O37  1  0.30703300  0.99984500  0.88420700  1
  O  O38  1  0.37611600  0.16561700  0.60960900  1
  O  O39  1  0.86611900  0.33600700  0.61133800  1
  O  O40  1  0.80684450  0.16529850  0.88620500  1
  O  O41  1  0.30626850  0.33320950  0.88675900  1
  O  O42  1  0.19315550  0.16529850  0.11379500  1
  O  O43  1  0.69373150  0.33320950  0.11324100  1
  O  O44  1  0.62388400  0.16561700  0.39039100  1
  O  O45  1  0.13388100  0.33600700  0.38866200  1
  O  O46  1  0.69296700  0.99984500  0.11579300  1
  O  O47  1  0.35963250  0.49423850  0.60662200  1
