# generated using pymatgen
data_KTl
_symmetry_space_group_name_H-M   'P 1'
_cell_length_a   15.47020600
_cell_length_b   15.66452200
_cell_length_c   8.25427100
_cell_angle_alpha   90.00000000
_cell_angle_beta   90.00000000
_cell_angle_gamma   90.00000000
_symmetry_Int_Tables_number   1
_chemical_formula_structural   KTl
_chemical_formula_sum   'K24 Tl24'
_cell_volume   2000.28540929
_cell_formula_units_Z   24
loop_
 _symmetry_equiv_pos_site_id
 _symmetry_equiv_pos_as_xyz
  1  'x, y, z'
loop_
 _atom_site_type_symbol
 _atom_site_label
 _atom_site_symmetry_multiplicity
 _atom_site_fract_x
 _atom_site_fract_y
 _atom_site_fract_z
 _atom_site_occupancy
  K  K0  1  0.71307900  0.25000000  0.75000000  1
  K  K1  1  0.28692100  0.25000000  0.25000000  1
  K  K2  1  0.28692100  0.75000000  0.25000000  1
  K  K3  1  0.71307900  0.75000000  0.75000000  1
  K  K4  1  0.50000000  0.67503400  0.00000000  1
  K  K5  1  0.50000000  0.82496600  0.50000000  1
  K  K6  1  0.50000000  0.32496600  0.00000000  1
  K  K7  1  0.50000000  0.17503400  0.50000000  1
  K  K8  1  0.20196100  0.00000000  0.06873100  1
  K  K9  1  0.29803900  0.00000000  0.56873100  1
  K  K10  1  0.70196100  0.00000000  0.43126900  1
  K  K11  1  0.79803900  0.00000000  0.93126900  1
  K  K12  1  0.21307900  0.75000000  0.75000000  1
  K  K13  1  0.78692100  0.75000000  0.25000000  1
  K  K14  1  0.78692100  0.25000000  0.25000000  1
  K  K15  1  0.21307900  0.25000000  0.75000000  1
  K  K16  1  0.00000000  0.17503400  0.00000000  1
  K  K17  1  0.00000000  0.32496600  0.50000000  1
  K  K18  1  0.00000000  0.82496600  0.00000000  1
  K  K19  1  0.00000000  0.67503400  0.50000000  1
  K  K20  1  0.70196100  0.50000000  0.06873100  1
  K  K21  1  0.79803900  0.50000000  0.56873100  1
  K  K22  1  0.20196100  0.50000000  0.43126900  1
  K  K23  1  0.29803900  0.50000000  0.93126900  1
  Tl  Tl24  1  0.54620500  0.00000000  0.79286400  1
  Tl  Tl25  1  0.95379500  0.00000000  0.29286400  1
  Tl  Tl26  1  0.45379500  0.00000000  0.20713600  1
  Tl  Tl27  1  0.04620500  0.00000000  0.70713600  1
  Tl  Tl28  1  0.60636150  0.88262950  0.08112200  1
  Tl  Tl29  1  0.39363850  0.61737050  0.58112200  1
  Tl  Tl30  1  0.39363850  0.88262950  0.91887800  1
  Tl  Tl31  1  0.60636150  0.61737050  0.41887800  1
  Tl  Tl32  1  0.39363850  0.11737050  0.91887800  1
  Tl  Tl33  1  0.60636150  0.38262950  0.41887800  1
  Tl  Tl34  1  0.60636150  0.11737050  0.08112200  1
  Tl  Tl35  1  0.39363850  0.38262950  0.58112200  1
  Tl  Tl36  1  0.04620500  0.50000000  0.79286400  1
  Tl  Tl37  1  0.45379500  0.50000000  0.29286400  1
  Tl  Tl38  1  0.95379500  0.50000000  0.20713600  1
  Tl  Tl39  1  0.54620500  0.50000000  0.70713600  1
  Tl  Tl40  1  0.10636150  0.38262950  0.08112200  1
  Tl  Tl41  1  0.89363850  0.11737050  0.58112200  1
  Tl  Tl42  1  0.89363850  0.38262950  0.91887800  1
  Tl  Tl43  1  0.10636150  0.11737050  0.41887800  1
  Tl  Tl44  1  0.89363850  0.61737050  0.91887800  1
  Tl  Tl45  1  0.10636150  0.88262950  0.41887800  1
  Tl  Tl46  1  0.10636150  0.61737050  0.08112200  1
  Tl  Tl47  1  0.89363850  0.88262950  0.58112200  1
