# generated using pymatgen
data_LiSi6BiO14
_symmetry_space_group_name_H-M   'P 1'
_cell_length_a   7.65905400
_cell_length_b   15.59957600
_cell_length_c   19.73851400
_cell_angle_alpha   90.00000000
_cell_angle_beta   90.00000000
_cell_angle_gamma   90.00000000
_symmetry_Int_Tables_number   1
_chemical_formula_structural   LiSi6BiO14
_chemical_formula_sum   'Li8 Si48 Bi8 O112'
_cell_volume   2358.31807623
_cell_formula_units_Z   8
loop_
 _symmetry_equiv_pos_site_id
 _symmetry_equiv_pos_as_xyz
  1  'x, y, z'
loop_
 _atom_site_type_symbol
 _atom_site_label
 _atom_site_symmetry_multiplicity
 _atom_site_fract_x
 _atom_site_fract_y
 _atom_site_fract_z
 _atom_site_occupancy
  Li  Li0  1  0.50000000  0.50000000  0.75000000  1
  Li  Li1  1  0.50000000  0.50000000  0.25000000  1
  Li  Li2  1  0.00000000  0.50000000  0.00000000  1
  Li  Li3  1  0.50000000  0.00000000  0.00000000  1
  Li  Li4  1  0.00000000  0.00000000  0.25000000  1
  Li  Li5  1  0.00000000  0.00000000  0.75000000  1
  Li  Li6  1  0.50000000  0.00000000  0.50000000  1
  Li  Li7  1  0.00000000  0.50000000  0.50000000  1
  Si  Si8  1  0.67571000  0.36758100  0.00000000  1
  Si  Si9  1  0.17571000  0.13241900  0.00000000  1
  Si  Si10  1  0.23910100  0.83375400  0.00000000  1
  Si  Si11  1  0.75877000  0.57364100  0.35152800  1
  Si  Si12  1  0.75877000  0.42635900  0.14847200  1
  Si  Si13  1  0.75877000  0.42635900  0.85152800  1
  Si  Si14  1  0.75877000  0.57364100  0.64847200  1
  Si  Si15  1  0.26089900  0.33375400  0.00000000  1
  Si  Si16  1  0.85419650  0.62176450  0.14808250  1
  Si  Si17  1  0.85419650  0.37823550  0.64808250  1
  Si  Si18  1  0.85419650  0.62176450  0.85191750  1
  Si  Si19  1  0.85419650  0.37823550  0.35191750  1
  Si  Si20  1  0.14580350  0.37823550  0.14808250  1
  Si  Si21  1  0.14580350  0.37823550  0.85191750  1
  Si  Si22  1  0.14580350  0.62176450  0.35191750  1
  Si  Si23  1  0.14580350  0.62176450  0.64808250  1
  Si  Si24  1  0.73910100  0.66624600  0.00000000  1
  Si  Si25  1  0.24123000  0.57364100  0.85152800  1
  Si  Si26  1  0.24123000  0.42635900  0.35152800  1
  Si  Si27  1  0.24123000  0.42635900  0.64847200  1
  Si  Si28  1  0.24123000  0.57364100  0.14847200  1
  Si  Si29  1  0.76089900  0.16624600  0.00000000  1
  Si  Si30  1  0.82429000  0.86758100  0.00000000  1
  Si  Si31  1  0.32429000  0.63241900  0.00000000  1
  Si  Si32  1  0.17571000  0.86758100  0.50000000  1
  Si  Si33  1  0.67571000  0.63241900  0.50000000  1
  Si  Si34  1  0.73910100  0.33375400  0.50000000  1
  Si  Si35  1  0.25877000  0.07364100  0.85152800  1
  Si  Si36  1  0.25877000  0.92635900  0.64847200  1
  Si  Si37  1  0.25877000  0.92635900  0.35152800  1
  Si  Si38  1  0.25877000  0.07364100  0.14847200  1
  Si  Si39  1  0.76089900  0.83375400  0.50000000  1
  Si  Si40  1  0.35419650  0.12176450  0.64808250  1
  Si  Si41  1  0.35419650  0.87823550  0.14808250  1
  Si  Si42  1  0.35419650  0.12176450  0.35191750  1
  Si  Si43  1  0.35419650  0.87823550  0.85191750  1
  Si  Si44  1  0.64580350  0.87823550  0.64808250  1
  Si  Si45  1  0.64580350  0.87823550  0.35191750  1
  Si  Si46  1  0.64580350  0.12176450  0.85191750  1
  Si  Si47  1  0.64580350  0.12176450  0.14808250  1
  Si  Si48  1  0.23910100  0.16624600  0.50000000  1
  Si  Si49  1  0.74123000  0.07364100  0.35152800  1
  Si  Si50  1  0.74123000  0.92635900  0.85152800  1
  Si  Si51  1  0.74123000  0.92635900  0.14847200  1
  Si  Si52  1  0.74123000  0.07364100  0.64847200  1
  Si  Si53  1  0.26089900  0.66624600  0.50000000  1
  Si  Si54  1  0.32429000  0.36758100  0.50000000  1
  Si  Si55  1  0.82429000  0.13241900  0.50000000  1
  Bi  Bi56  1  0.50000000  0.71550500  0.25000000  1
  Bi  Bi57  1  0.50000000  0.71550500  0.75000000  1
  Bi  Bi58  1  0.50000000  0.28449500  0.25000000  1
  Bi  Bi59  1  0.50000000  0.28449500  0.75000000  1
  Bi  Bi60  1  0.00000000  0.21550500  0.75000000  1
  Bi  Bi61  1  0.00000000  0.21550500  0.25000000  1
  Bi  Bi62  1  0.00000000  0.78449500  0.75000000  1
  Bi  Bi63  1  0.00000000  0.78449500  0.25000000  1
  O  O64  1  0.75038400  0.42274600  0.06420800  1
  O  O65  1  0.75038400  0.42274600  0.93579200  1
  O  O66  1  0.75484000  0.27052800  0.00000000  1
  O  O67  1  0.41398650  0.60498150  0.81342750  1
  O  O68  1  0.41398650  0.60498150  0.18657250  1
  O  O69  1  0.96413300  0.13632100  0.00000000  1
  O  O70  1  0.58601350  0.60498150  0.31342750  1
  O  O71  1  0.58601350  0.60498150  0.68657250  1
  O  O72  1  0.15637100  0.37574800  0.06402100  1
  O  O73  1  0.15637100  0.37574800  0.93597900  1
  O  O74  1  0.24018950  0.29932850  0.81510250  1
  O  O75  1  0.24018950  0.29932850  0.18489750  1
  O  O76  1  0.25038400  0.07725400  0.93579200  1
  O  O77  1  0.25038400  0.07725400  0.06420800  1
  O  O78  1  0.25484000  0.22947200  0.00000000  1
  O  O79  1  0.25981050  0.79932850  0.18489750  1
  O  O80  1  0.25981050  0.79932850  0.81510250  1
  O  O81  1  0.78404550  0.47296650  0.33033350  1
  O  O82  1  0.78404550  0.52703350  0.16966650  1
  O  O83  1  0.78404550  0.52703350  0.83033350  1
  O  O84  1  0.78404550  0.47296650  0.66966650  1
  O  O85  1  0.34362900  0.87574800  0.93597900  1
  O  O86  1  0.34362900  0.87574800  0.06402100  1
  O  O87  1  0.93652750  0.37261050  0.16825050  1
  O  O88  1  0.93652750  0.37261050  0.83174950  1
  O  O89  1  0.93652750  0.62738950  0.33174950  1
  O  O90  1  0.93652750  0.62738950  0.66825050  1
  O  O91  1  0.46413300  0.36367900  0.00000000  1
  O  O92  1  0.53586700  0.63632100  0.00000000  1
  O  O93  1  0.06347250  0.37261050  0.33174950  1
  O  O94  1  0.06347250  0.62738950  0.83174950  1
  O  O95  1  0.06347250  0.62738950  0.16825050  1
  O  O96  1  0.06347250  0.37261050  0.66825050  1
  O  O97  1  0.65637100  0.12425200  0.06402100  1
  O  O98  1  0.65637100  0.12425200  0.93597900  1
  O  O99  1  0.21595450  0.47296650  0.83033350  1
  O  O100  1  0.21595450  0.52703350  0.33033350  1
  O  O101  1  0.21595450  0.47296650  0.16966650  1
  O  O102  1  0.21595450  0.52703350  0.66966650  1
  O  O103  1  0.74018950  0.20067150  0.81510250  1
  O  O104  1  0.74018950  0.20067150  0.18489750  1
  O  O105  1  0.74516000  0.77052800  0.00000000  1
  O  O106  1  0.74961600  0.92274600  0.93579200  1
  O  O107  1  0.74961600  0.92274600  0.06420800  1
  O  O108  1  0.75981050  0.70067150  0.18489750  1
  O  O109  1  0.75981050  0.70067150  0.81510250  1
  O  O110  1  0.84362900  0.62425200  0.93597900  1
  O  O111  1  0.84362900  0.62425200  0.06402100  1
  O  O112  1  0.41398650  0.39501850  0.31342750  1
  O  O113  1  0.41398650  0.39501850  0.68657250  1
  O  O114  1  0.03586700  0.86367900  0.00000000  1
  O  O115  1  0.58601350  0.39501850  0.18657250  1
  O  O116  1  0.58601350  0.39501850  0.81342750  1
  O  O117  1  0.24516000  0.72947200  0.00000000  1
  O  O118  1  0.24961600  0.57725400  0.93579200  1
  O  O119  1  0.24961600  0.57725400  0.06420800  1
  O  O120  1  0.25038400  0.92274600  0.56420800  1
  O  O121  1  0.25038400  0.92274600  0.43579200  1
  O  O122  1  0.25484000  0.77052800  0.50000000  1
  O  O123  1  0.91398650  0.10498150  0.31342750  1
  O  O124  1  0.91398650  0.10498150  0.68657250  1
  O  O125  1  0.46413300  0.63632100  0.50000000  1
  O  O126  1  0.08601350  0.10498150  0.81342750  1
  O  O127  1  0.08601350  0.10498150  0.18657250  1
  O  O128  1  0.65637100  0.87574800  0.56402100  1
  O  O129  1  0.65637100  0.87574800  0.43597900  1
  O  O130  1  0.74018950  0.79932850  0.31510250  1
  O  O131  1  0.74018950  0.79932850  0.68489750  1
  O  O132  1  0.75038400  0.57725400  0.43579200  1
  O  O133  1  0.75038400  0.57725400  0.56420800  1
  O  O134  1  0.75484000  0.72947200  0.50000000  1
  O  O135  1  0.75981050  0.29932850  0.68489750  1
  O  O136  1  0.75981050  0.29932850  0.31510250  1
  O  O137  1  0.28404550  0.97296650  0.83033350  1
  O  O138  1  0.28404550  0.02703350  0.66966650  1
  O  O139  1  0.28404550  0.02703350  0.33033350  1
  O  O140  1  0.28404550  0.97296650  0.16966650  1
  O  O141  1  0.84362900  0.37574800  0.43597900  1
  O  O142  1  0.84362900  0.37574800  0.56402100  1
  O  O143  1  0.43652750  0.87261050  0.66825050  1
  O  O144  1  0.43652750  0.87261050  0.33174950  1
  O  O145  1  0.43652750  0.12738950  0.83174950  1
  O  O146  1  0.43652750  0.12738950  0.16825050  1
  O  O147  1  0.96413300  0.86367900  0.50000000  1
  O  O148  1  0.03586700  0.13632100  0.50000000  1
  O  O149  1  0.56347250  0.87261050  0.83174950  1
  O  O150  1  0.56347250  0.12738950  0.33174950  1
  O  O151  1  0.56347250  0.12738950  0.66825050  1
  O  O152  1  0.56347250  0.87261050  0.16825050  1
  O  O153  1  0.15637100  0.62425200  0.56402100  1
  O  O154  1  0.15637100  0.62425200  0.43597900  1
  O  O155  1  0.71595450  0.97296650  0.33033350  1
  O  O156  1  0.71595450  0.02703350  0.83033350  1
  O  O157  1  0.71595450  0.97296650  0.66966650  1
  O  O158  1  0.71595450  0.02703350  0.16966650  1
  O  O159  1  0.24018950  0.70067150  0.31510250  1
  O  O160  1  0.24018950  0.70067150  0.68489750  1
  O  O161  1  0.24516000  0.27052800  0.50000000  1
  O  O162  1  0.24961600  0.42274600  0.43579200  1
  O  O163  1  0.24961600  0.42274600  0.56420800  1
  O  O164  1  0.25981050  0.20067150  0.68489750  1
  O  O165  1  0.25981050  0.20067150  0.31510250  1
  O  O166  1  0.34362900  0.12425200  0.43597900  1
  O  O167  1  0.34362900  0.12425200  0.56402100  1
  O  O168  1  0.91398650  0.89501850  0.81342750  1
  O  O169  1  0.91398650  0.89501850  0.18657250  1
  O  O170  1  0.53586700  0.36367900  0.50000000  1
  O  O171  1  0.08601350  0.89501850  0.68657250  1
  O  O172  1  0.08601350  0.89501850  0.31342750  1
  O  O173  1  0.74516000  0.22947200  0.50000000  1
  O  O174  1  0.74961600  0.07725400  0.43579200  1
  O  O175  1  0.74961600  0.07725400  0.56420800  1
