# generated using pymatgen
data_Ti2Co3Te3O16
_symmetry_space_group_name_H-M   'P 1'
_cell_length_a   10.74874200
_cell_length_b   6.07638400
_cell_length_c   9.30657253
_cell_angle_alpha   90.00000000
_cell_angle_beta   91.79338156
_cell_angle_gamma   90.00000000
_symmetry_Int_Tables_number   1
_chemical_formula_structural   Ti2Co3Te3O16
_chemical_formula_sum   'Ti4 Co6 Te6 O32'
_cell_volume   607.54694171
_cell_formula_units_Z   2
loop_
 _symmetry_equiv_pos_site_id
 _symmetry_equiv_pos_as_xyz
  1  'x, y, z'
loop_
 _atom_site_type_symbol
 _atom_site_label
 _atom_site_symmetry_multiplicity
 _atom_site_fract_x
 _atom_site_fract_y
 _atom_site_fract_z
 _atom_site_occupancy
  Ti  Ti0  1  0.67862000  0.00000000  0.51229400  1
  Ti  Ti1  1  0.85948600  0.50000000  0.96180500  1
  Ti  Ti2  1  0.17862000  0.50000000  0.51229400  1
  Ti  Ti3  1  0.35948600  0.00000000  0.96180500  1
  Co  Co4  1  0.82652400  0.00000000  0.20898700  1
  Co  Co5  1  0.91986200  0.75017100  0.70096400  1
  Co  Co6  1  0.91986200  0.24982900  0.70096400  1
  Co  Co7  1  0.32652400  0.50000000  0.20898700  1
  Co  Co8  1  0.41986200  0.25017100  0.70096400  1
  Co  Co9  1  0.41986200  0.74982900  0.70096400  1
  Te  Te10  1  0.57769150  0.24887350  0.21491200  1
  Te  Te11  1  0.57769150  0.75112650  0.21491200  1
  Te  Te12  1  0.67167700  0.50000000  0.71493900  1
  Te  Te13  1  0.07769150  0.74887350  0.21491200  1
  Te  Te14  1  0.07769150  0.25112650  0.21491200  1
  Te  Te15  1  0.17167700  0.00000000  0.71493900  1
  O  O16  1  0.59880800  0.24712900  0.59876600  1
  O  O17  1  0.51354300  0.00000000  0.33716800  1
  O  O18  1  0.64643600  0.00000000  0.09586300  1
  O  O19  1  0.50414200  0.50000000  0.32478300  1
  O  O20  1  0.51331000  0.50000000  0.80340600  1
  O  O21  1  0.59880800  0.75287100  0.59876600  1
  O  O22  1  0.72574650  0.22101250  0.33288600  1
  O  O23  1  0.72574650  0.77898750  0.33288600  1
  O  O24  1  0.65202400  0.50000000  0.10630200  1
  O  O25  1  0.82798100  0.00000000  0.59020200  1
  O  O26  1  0.75803900  0.70902700  0.84952800  1
  O  O27  1  0.75803900  0.29097300  0.84952800  1
  O  O28  1  0.82136100  0.50000000  0.60474900  1
  O  O29  1  0.92139950  0.74804550  0.10781100  1
  O  O30  1  0.98213200  0.50000000  0.84551500  1
  O  O31  1  0.92139950  0.25195450  0.10781100  1
  O  O32  1  0.09880800  0.74712900  0.59876600  1
  O  O33  1  0.01354300  0.50000000  0.33716800  1
  O  O34  1  0.14643600  0.50000000  0.09586300  1
  O  O35  1  0.00414200  0.00000000  0.32478300  1
  O  O36  1  0.01331000  0.00000000  0.80340600  1
  O  O37  1  0.09880800  0.25287100  0.59876600  1
  O  O38  1  0.22574650  0.72101250  0.33288600  1
  O  O39  1  0.22574650  0.27898750  0.33288600  1
  O  O40  1  0.15202400  0.00000000  0.10630200  1
  O  O41  1  0.32798100  0.50000000  0.59020200  1
  O  O42  1  0.25803900  0.20902700  0.84952800  1
  O  O43  1  0.25803900  0.79097300  0.84952800  1
  O  O44  1  0.32136100  0.00000000  0.60474900  1
  O  O45  1  0.42139950  0.24804550  0.10781100  1
  O  O46  1  0.48213200  0.00000000  0.84551500  1
  O  O47  1  0.42139950  0.75195450  0.10781100  1
