# generated using pymatgen
data_TlInS2
_symmetry_space_group_name_H-M   'P 1'
_cell_length_a   11.14681200
_cell_length_b   11.15942600
_cell_length_c   15.37830250
_cell_angle_alpha   90.00000000
_cell_angle_beta   100.56415398
_cell_angle_gamma   90.00000000
_symmetry_Int_Tables_number   1
_chemical_formula_structural   TlInS2
_chemical_formula_sum   'Tl16 In16 S32'
_cell_volume   1880.51432998
_cell_formula_units_Z   16
loop_
 _symmetry_equiv_pos_site_id
 _symmetry_equiv_pos_as_xyz
  1  'x, y, z'
loop_
 _atom_site_type_symbol
 _atom_site_label
 _atom_site_symmetry_multiplicity
 _atom_site_fract_x
 _atom_site_fract_y
 _atom_site_fract_z
 _atom_site_occupancy
  Tl  Tl0  1  0.71425000  0.05837300  0.61950000  1
  Tl  Tl1  1  0.28575000  0.05837300  0.88050000  1
  Tl  Tl2  1  0.28575000  0.94162700  0.38050000  1
  Tl  Tl3  1  0.71425000  0.94162700  0.11950000  1
  Tl  Tl4  1  0.53103550  0.31251450  0.88288000  1
  Tl  Tl5  1  0.46896450  0.31251450  0.61712000  1
  Tl  Tl6  1  0.46896450  0.68748550  0.11712000  1
  Tl  Tl7  1  0.53103550  0.68748550  0.38288000  1
  Tl  Tl8  1  0.21425000  0.55837300  0.61950000  1
  Tl  Tl9  1  0.78575000  0.55837300  0.88050000  1
  Tl  Tl10  1  0.78575000  0.44162700  0.38050000  1
  Tl  Tl11  1  0.21425000  0.44162700  0.11950000  1
  Tl  Tl12  1  0.03103550  0.81251450  0.88288000  1
  Tl  Tl13  1  0.96896450  0.81251450  0.61712000  1
  Tl  Tl14  1  0.96896450  0.18748550  0.11712000  1
  Tl  Tl15  1  0.03103550  0.18748550  0.38288000  1
  In  In16  1  0.40016500  0.68868900  0.84495700  1
  In  In17  1  0.59983500  0.68868900  0.65504300  1
  In  In18  1  0.59983500  0.31131100  0.15504300  1
  In  In19  1  0.40016500  0.31131100  0.34495700  1
  In  In20  1  0.35022400  0.93782800  0.65489700  1
  In  In21  1  0.64977600  0.93782800  0.84510300  1
  In  In22  1  0.64977600  0.06217200  0.34510300  1
  In  In23  1  0.35022400  0.06217200  0.15489700  1
  In  In24  1  0.90016500  0.18868900  0.84495700  1
  In  In25  1  0.09983500  0.18868900  0.65504300  1
  In  In26  1  0.09983500  0.81131100  0.15504300  1
  In  In27  1  0.90016500  0.81131100  0.34495700  1
  In  In28  1  0.85022400  0.43782800  0.65489700  1
  In  In29  1  0.14977600  0.43782800  0.84510300  1
  In  In30  1  0.14977600  0.56217200  0.34510300  1
  In  In31  1  0.85022400  0.56217200  0.15489700  1
  S  S32  1  0.23926500  0.81295200  0.75041700  1
  S  S33  1  0.76073500  0.81295200  0.74958300  1
  S  S34  1  0.76073500  0.18704800  0.24958300  1
  S  S35  1  0.23926500  0.18704800  0.25041700  1
  S  S36  1  0.50000000  0.07328200  0.75000000  1
  S  S37  1  0.50000000  0.92671800  0.25000000  1
  S  S38  1  0.50000000  0.55235700  0.75000000  1
  S  S39  1  0.50000000  0.44764300  0.25000000  1
  S  S40  1  0.45172000  0.81507700  0.55528200  1
  S  S41  1  0.54828000  0.81507700  0.94471800  1
  S  S42  1  0.54828000  0.18492300  0.44471800  1
  S  S43  1  0.45172000  0.18492300  0.05528200  1
  S  S44  1  0.80092700  0.06245700  0.94451100  1
  S  S45  1  0.19907300  0.06245700  0.55548900  1
  S  S46  1  0.19907300  0.93754300  0.05548900  1
  S  S47  1  0.80092700  0.93754300  0.44451100  1
  S  S48  1  0.73926500  0.31295200  0.75041700  1
  S  S49  1  0.26073500  0.31295200  0.74958300  1
  S  S50  1  0.26073500  0.68704800  0.24958300  1
  S  S51  1  0.73926500  0.68704800  0.25041700  1
  S  S52  1  0.00000000  0.57328200  0.75000000  1
  S  S53  1  0.00000000  0.42671800  0.25000000  1
  S  S54  1  0.00000000  0.05235700  0.75000000  1
  S  S55  1  0.00000000  0.94764300  0.25000000  1
  S  S56  1  0.95172000  0.31507700  0.55528200  1
  S  S57  1  0.04828000  0.31507700  0.94471800  1
  S  S58  1  0.04828000  0.68492300  0.44471800  1
  S  S59  1  0.95172000  0.68492300  0.05528200  1
  S  S60  1  0.30092700  0.56245700  0.94451100  1
  S  S61  1  0.69907300  0.56245700  0.55548900  1
  S  S62  1  0.69907300  0.43754300  0.05548900  1
  S  S63  1  0.30092700  0.43754300  0.44451100  1
