# generated using pymatgen
data_LiGaGeO4
_symmetry_space_group_name_H-M   'P 1'
_cell_length_a   14.16166214
_cell_length_b   14.16166214
_cell_length_c   9.43930491
_cell_angle_alpha   90.00000000
_cell_angle_beta   90.00000000
_cell_angle_gamma   120.00000000
_symmetry_Int_Tables_number   1
_chemical_formula_structural   LiGaGeO4
_chemical_formula_sum   'Li18 Ga18 Ge18 O72'
_cell_volume   1639.45350593
_cell_formula_units_Z   18
loop_
 _symmetry_equiv_pos_site_id
 _symmetry_equiv_pos_as_xyz
  1  'x, y, z'
loop_
 _atom_site_type_symbol
 _atom_site_label
 _atom_site_symmetry_multiplicity
 _atom_site_fract_x
 _atom_site_fract_y
 _atom_site_fract_z
 _atom_site_occupancy
  Li  Li0  1  0.78923800  0.80987800  0.74611300  1
  Li  Li1  1  0.19012200  0.97936000  0.74611300  1
  Li  Li2  1  0.02064000  0.21076200  0.74611300  1
  Li  Li3  1  0.21076200  0.19012200  0.25388700  1
  Li  Li4  1  0.80987800  0.02064000  0.25388700  1
  Li  Li5  1  0.97936000  0.78923800  0.25388700  1
  Li  Li6  1  0.45590467  0.14321133  0.07944633  1
  Li  Li7  1  0.85678867  0.31269333  0.07944633  1
  Li  Li8  1  0.68730667  0.54409533  0.07944633  1
  Li  Li9  1  0.87742867  0.52345533  0.58722033  1
  Li  Li10  1  0.47654467  0.35397333  0.58722033  1
  Li  Li11  1  0.64602667  0.12257133  0.58722033  1
  Li  Li12  1  0.12257133  0.47654467  0.41277967  1
  Li  Li13  1  0.52345533  0.64602667  0.41277967  1
  Li  Li14  1  0.35397333  0.87742867  0.41277967  1
  Li  Li15  1  0.54409533  0.85678867  0.92055367  1
  Li  Li16  1  0.14321133  0.68730667  0.92055367  1
  Li  Li17  1  0.31269333  0.45590467  0.92055367  1
  Ga  Ga18  1  0.79000600  0.80378000  0.41838900  1
  Ga  Ga19  1  0.01377400  0.20999400  0.41838900  1
  Ga  Ga20  1  0.20999400  0.19622000  0.58161100  1
  Ga  Ga21  1  0.80378000  0.01377400  0.58161100  1
  Ga  Ga22  1  0.98622600  0.79000600  0.58161100  1
  Ga  Ga23  1  0.19622000  0.98622600  0.41838900  1
  Ga  Ga24  1  0.45667267  0.13711333  0.75172233  1
  Ga  Ga25  1  0.68044067  0.54332733  0.75172233  1
  Ga  Ga26  1  0.87666067  0.52955333  0.91494433  1
  Ga  Ga27  1  0.47044667  0.34710733  0.91494433  1
  Ga  Ga28  1  0.65289267  0.12333933  0.91494433  1
  Ga  Ga29  1  0.86288667  0.31955933  0.75172233  1
  Ga  Ga30  1  0.12333933  0.47044667  0.08505567  1
  Ga  Ga31  1  0.34710733  0.87666067  0.08505567  1
  Ga  Ga32  1  0.54332733  0.86288667  0.24827767  1
  Ga  Ga33  1  0.13711333  0.68044067  0.24827767  1
  Ga  Ga34  1  0.31955933  0.45667267  0.24827767  1
  Ga  Ga35  1  0.52955333  0.65289267  0.08505567  1
  Ge  Ge36  1  0.85972667  0.31098233  0.41537133  1
  Ge  Ge37  1  0.68901767  0.54874433  0.41537133  1
  Ge  Ge38  1  0.54874433  0.85972667  0.58462867  1
  Ge  Ge39  1  0.14027333  0.68901767  0.58462867  1
  Ge  Ge40  1  0.31098233  0.45125567  0.58462867  1
  Ge  Ge41  1  0.45125567  0.14027333  0.41537133  1
  Ge  Ge42  1  0.52639333  0.64431567  0.74870467  1
  Ge  Ge43  1  0.35568433  0.88207767  0.74870467  1
  Ge  Ge44  1  0.21541100  0.19306000  0.91796200  1
  Ge  Ge45  1  0.80694000  0.02235100  0.91796200  1
  Ge  Ge46  1  0.97764900  0.78458900  0.91796200  1
  Ge  Ge47  1  0.11792233  0.47360667  0.74870467  1
  Ge  Ge48  1  0.19306000  0.97764900  0.08203800  1
  Ge  Ge49  1  0.02235100  0.21541100  0.08203800  1
  Ge  Ge50  1  0.88207767  0.52639333  0.25129533  1
  Ge  Ge51  1  0.47360667  0.35568433  0.25129533  1
  Ge  Ge52  1  0.64431567  0.11792233  0.25129533  1
  Ge  Ge53  1  0.78458900  0.80694000  0.08203800  1
  O  O54  1  0.87432533  0.09433067  0.42672967  1
  O  O55  1  0.92199733  0.79538567  0.75612767  1
  O  O56  1  0.87338833  0.07800267  0.75612767  1
  O  O57  1  0.20461433  0.12661167  0.75612767  1
  O  O58  1  0.07800267  0.20461433  0.24387233  1
  O  O59  1  0.12661167  0.92199733  0.24387233  1
  O  O60  1  0.79538567  0.87338833  0.24387233  1
  O  O61  1  0.90566933  0.77999467  0.42672967  1
  O  O62  1  0.00798633  0.66889067  0.59634167  1
  O  O63  1  0.22000533  0.12567467  0.42672967  1
  O  O64  1  0.09433067  0.22000533  0.57327033  1
  O  O65  1  0.12567467  0.90566933  0.57327033  1
  O  O66  1  0.99201367  0.33110933  0.40365833  1
  O  O67  1  0.66889067  0.66090433  0.40365833  1
  O  O68  1  0.33909567  0.00798633  0.40365833  1
  O  O69  1  0.45937433  0.22111267  0.26386367  1
  O  O70  1  0.33110933  0.33909567  0.59634167  1
  O  O71  1  0.66090433  0.99201367  0.59634167  1
  O  O72  1  0.23826167  0.45937433  0.73613633  1
  O  O73  1  0.77888733  0.23826167  0.26386367  1
  O  O74  1  0.76173833  0.54062567  0.26386367  1
  O  O75  1  0.54062567  0.77888733  0.73613633  1
  O  O76  1  0.22111267  0.76173833  0.73613633  1
  O  O77  1  0.77999467  0.87432533  0.57327033  1
  O  O78  1  0.54099200  0.42766400  0.76006300  1
  O  O79  1  0.58866400  0.12871900  0.08946100  1
  O  O80  1  0.54005500  0.41133600  0.08946100  1
  O  O81  1  0.87128100  0.45994500  0.08946100  1
  O  O82  1  0.74466933  0.53794767  0.57720567  1
  O  O83  1  0.79327833  0.25533067  0.57720567  1
  O  O84  1  0.46205233  0.20672167  0.57720567  1
  O  O85  1  0.57233600  0.11332800  0.76006300  1
  O  O86  1  0.67465300  0.00222400  0.92967500  1
  O  O87  1  0.88667200  0.45900800  0.76006300  1
  O  O88  1  0.76099733  0.55333867  0.90660367  1
  O  O89  1  0.79234133  0.23900267  0.90660367  1
  O  O90  1  0.65868033  0.66444267  0.73699167  1
  O  O91  1  0.33555733  0.99423767  0.73699167  1
  O  O92  1  0.00576233  0.34131967  0.73699167  1
  O  O93  1  0.12604100  0.55444600  0.59719700  1
  O  O94  1  0.99777600  0.67242900  0.92967500  1
  O  O95  1  0.32757100  0.32534700  0.92967500  1
  O  O96  1  0.90492833  0.79270767  0.06946967  1
  O  O97  1  0.44555400  0.57159500  0.59719700  1
  O  O98  1  0.42840500  0.87395900  0.59719700  1
  O  O99  1  0.20729233  0.11222067  0.06946967  1
  O  O100  1  0.88777933  0.09507167  0.06946967  1
  O  O101  1  0.44666133  0.20765867  0.90660367  1
  O  O102  1  0.20765867  0.76099733  0.09339633  1
  O  O103  1  0.25533067  0.46205233  0.42279433  1
  O  O104  1  0.20672167  0.74466933  0.42279433  1
  O  O105  1  0.53794767  0.79327833  0.42279433  1
  O  O106  1  0.41133600  0.87128100  0.91053900  1
  O  O107  1  0.45994500  0.58866400  0.91053900  1
  O  O108  1  0.12871900  0.54005500  0.91053900  1
  O  O109  1  0.23900267  0.44666133  0.09339633  1
  O  O110  1  0.34131967  0.33555733  0.26300833  1
  O  O111  1  0.55333867  0.79234133  0.09339633  1
  O  O112  1  0.42766400  0.88667200  0.23993700  1
  O  O113  1  0.45900800  0.57233600  0.23993700  1
  O  O114  1  0.32534700  0.99777600  0.07032500  1
  O  O115  1  0.00222400  0.32757100  0.07032500  1
  O  O116  1  0.67242900  0.67465300  0.07032500  1
  O  O117  1  0.79270767  0.88777933  0.93053033  1
  O  O118  1  0.66444267  0.00576233  0.26300833  1
  O  O119  1  0.99423767  0.65868033  0.26300833  1
  O  O120  1  0.57159500  0.12604100  0.40280300  1
  O  O121  1  0.11222067  0.90492833  0.93053033  1
  O  O122  1  0.09507167  0.20729233  0.93053033  1
  O  O123  1  0.87395900  0.44555400  0.40280300  1
  O  O124  1  0.55444600  0.42840500  0.40280300  1
  O  O125  1  0.11332800  0.54099200  0.23993700  1
