# generated using pymatgen
data_K2Ti6O13
_symmetry_space_group_name_H-M   'P 1'
_cell_length_a   15.82427600
_cell_length_b   3.82020600
_cell_length_c   9.23646618
_cell_angle_alpha   90.00000000
_cell_angle_beta   100.08298288
_cell_angle_gamma   90.00000000
_symmetry_Int_Tables_number   1
_chemical_formula_structural   K2Ti6O13
_chemical_formula_sum   'K4 Ti12 O26'
_cell_volume   549.73900911
_cell_formula_units_Z   2
loop_
 _symmetry_equiv_pos_site_id
 _symmetry_equiv_pos_as_xyz
  1  'x, y, z'
loop_
 _atom_site_type_symbol
 _atom_site_label
 _atom_site_symmetry_multiplicity
 _atom_site_fract_x
 _atom_site_fract_y
 _atom_site_fract_z
 _atom_site_occupancy
  K  K0  1  0.95552800  0.50000000  0.24934200  1
  K  K1  1  0.54447200  0.00000000  0.75065800  1
  K  K2  1  0.45552800  0.00000000  0.24934200  1
  K  K3  1  0.04447200  0.50000000  0.75065800  1
  Ti  Ti4  1  0.73156600  0.50000000  0.77640700  1
  Ti  Ti5  1  0.76843400  0.00000000  0.22359300  1
  Ti  Ti6  1  0.67153300  0.50000000  0.43745500  1
  Ti  Ti7  1  0.82846700  0.00000000  0.56254500  1
  Ti  Ti8  1  0.61467500  0.50000000  0.09597800  1
  Ti  Ti9  1  0.88532500  0.00000000  0.90402200  1
  Ti  Ti10  1  0.23156600  0.00000000  0.77640700  1
  Ti  Ti11  1  0.26843400  0.50000000  0.22359300  1
  Ti  Ti12  1  0.17153300  0.00000000  0.43745500  1
  Ti  Ti13  1  0.32846700  0.50000000  0.56254500  1
  Ti  Ti14  1  0.11467500  0.00000000  0.09597800  1
  Ti  Ti15  1  0.38532500  0.50000000  0.90402200  1
  O  O16  1  0.66642700  0.50000000  0.91449600  1
  O  O17  1  0.83357300  0.00000000  0.08550400  1
  O  O18  1  0.85788600  0.50000000  0.88792700  1
  O  O19  1  0.64211400  0.00000000  0.11207300  1
  O  O20  1  0.63484300  0.50000000  0.61484200  1
  O  O21  1  0.86515700  0.00000000  0.38515800  1
  O  O22  1  0.79663600  0.50000000  0.57141200  1
  O  O23  1  0.70336400  0.00000000  0.42858800  1
  O  O24  1  0.00000000  0.00000000  0.00000000  1
  O  O25  1  0.76063200  0.00000000  0.76007400  1
  O  O26  1  0.73936800  0.50000000  0.23992600  1
  O  O27  1  0.92140100  0.00000000  0.70978500  1
  O  O28  1  0.57859900  0.50000000  0.29021500  1
  O  O29  1  0.16642700  0.00000000  0.91449600  1
  O  O30  1  0.33357300  0.50000000  0.08550400  1
  O  O31  1  0.35788600  0.00000000  0.88792700  1
  O  O32  1  0.14211400  0.50000000  0.11207300  1
  O  O33  1  0.13484300  0.00000000  0.61484200  1
  O  O34  1  0.36515700  0.50000000  0.38515800  1
  O  O35  1  0.29663600  0.00000000  0.57141200  1
  O  O36  1  0.20336400  0.50000000  0.42858800  1
  O  O37  1  0.50000000  0.50000000  0.00000000  1
  O  O38  1  0.26063200  0.50000000  0.76007400  1
  O  O39  1  0.23936800  0.00000000  0.23992600  1
  O  O40  1  0.42140100  0.50000000  0.70978500  1
  O  O41  1  0.07859900  0.00000000  0.29021500  1
