# generated using pymatgen
data_Cs2SnO3
_symmetry_space_group_name_H-M   'P 1'
_cell_length_a   7.88198000
_cell_length_b   11.42248600
_cell_length_c   5.92843100
_cell_angle_alpha   90.00000000
_cell_angle_beta   90.00000000
_cell_angle_gamma   90.00000000
_symmetry_Int_Tables_number   1
_chemical_formula_structural   Cs2SnO3
_chemical_formula_sum   'Cs8 Sn4 O12'
_cell_volume   533.74735088
_cell_formula_units_Z   4
loop_
 _symmetry_equiv_pos_site_id
 _symmetry_equiv_pos_as_xyz
  1  'x, y, z'
loop_
 _atom_site_type_symbol
 _atom_site_label
 _atom_site_symmetry_multiplicity
 _atom_site_fract_x
 _atom_site_fract_y
 _atom_site_fract_z
 _atom_site_occupancy
  Cs  Cs0  1  0.35508300  0.16225700  0.75000000  1
  Cs  Cs1  1  0.64491700  0.16225700  0.25000000  1
  Cs  Cs2  1  0.64491700  0.83774300  0.25000000  1
  Cs  Cs3  1  0.35508300  0.83774300  0.75000000  1
  Cs  Cs4  1  0.85508300  0.66225700  0.75000000  1
  Cs  Cs5  1  0.14491700  0.66225700  0.25000000  1
  Cs  Cs6  1  0.14491700  0.33774300  0.25000000  1
  Cs  Cs7  1  0.85508300  0.33774300  0.75000000  1
  Sn  Sn8  1  0.08291900  0.00000000  0.25000000  1
  Sn  Sn9  1  0.91708100  0.00000000  0.75000000  1
  Sn  Sn10  1  0.58291900  0.50000000  0.25000000  1
  Sn  Sn11  1  0.41708100  0.50000000  0.75000000  1
  O  O12  1  0.50000000  0.38156900  0.00000000  1
  O  O13  1  0.50000000  0.38156900  0.50000000  1
  O  O14  1  0.66758000  0.00000000  0.75000000  1
  O  O15  1  0.33242000  0.00000000  0.25000000  1
  O  O16  1  0.50000000  0.61843100  0.00000000  1
  O  O17  1  0.50000000  0.61843100  0.50000000  1
  O  O18  1  0.00000000  0.88156900  0.00000000  1
  O  O19  1  0.00000000  0.88156900  0.50000000  1
  O  O20  1  0.16758000  0.50000000  0.75000000  1
  O  O21  1  0.83242000  0.50000000  0.25000000  1
  O  O22  1  0.00000000  0.11843100  0.00000000  1
  O  O23  1  0.00000000  0.11843100  0.50000000  1
