# generated using pymatgen
data_K3SbSe4
_symmetry_space_group_name_H-M   'P 1'
_cell_length_a   11.77627106
_cell_length_b   11.77627106
_cell_length_c   13.67278743
_cell_angle_alpha   90.00000000
_cell_angle_beta   90.00000000
_cell_angle_gamma   120.00000000
_symmetry_Int_Tables_number   1
_chemical_formula_structural   K3SbSe4
_chemical_formula_sum   'K18 Sb6 Se24'
_cell_volume   1642.11391178
_cell_formula_units_Z   6
loop_
 _symmetry_equiv_pos_site_id
 _symmetry_equiv_pos_as_xyz
  1  'x, y, z'
loop_
 _atom_site_type_symbol
 _atom_site_label
 _atom_site_symmetry_multiplicity
 _atom_site_fract_x
 _atom_site_fract_y
 _atom_site_fract_z
 _atom_site_occupancy
  K  K0  1  0.32641467  0.19847833  0.67287633  1
  K  K1  1  0.80152167  0.12793633  0.67287633  1
  K  K2  1  0.87206367  0.67358533  0.67287633  1
  K  K3  1  0.99308133  0.46126967  0.50620967  1
  K  K4  1  0.53873033  0.53181167  0.50620967  1
  K  K5  1  0.46818833  0.00691867  0.50620967  1
  K  K6  1  0.99308133  0.53181167  0.00620967  1
  K  K7  1  0.46818833  0.46126967  0.00620967  1
  K  K8  1  0.53873033  0.00691867  0.00620967  1
  K  K9  1  0.65974800  0.79460300  0.83954300  1
  K  K10  1  0.20539700  0.86514500  0.83954300  1
  K  K11  1  0.13485500  0.34025200  0.83954300  1
  K  K12  1  0.65974800  0.86514500  0.33954300  1
  K  K13  1  0.13485500  0.79460300  0.33954300  1
  K  K14  1  0.20539700  0.34025200  0.33954300  1
  K  K15  1  0.32641467  0.12793633  0.17287633  1
  K  K16  1  0.87206367  0.19847833  0.17287633  1
  K  K17  1  0.80152167  0.67358533  0.17287633  1
  Sb  Sb18  1  0.00000000  0.00000000  0.99830600  1
  Sb  Sb19  1  0.00000000  0.00000000  0.49830600  1
  Sb  Sb20  1  0.66666667  0.33333333  0.33163933  1
  Sb  Sb21  1  0.66666667  0.33333333  0.83163933  1
  Sb  Sb22  1  0.33333333  0.66666667  0.66497267  1
  Sb  Sb23  1  0.33333333  0.66666667  0.16497267  1
  Se  Se24  1  0.23676033  0.43341267  0.60413367  1
  Se  Se25  1  0.00000000  0.00000000  0.68216400  1
  Se  Se26  1  0.90342700  0.13668100  0.43746700  1
  Se  Se27  1  0.56658733  0.80334767  0.60413367  1
  Se  Se28  1  0.19665233  0.76323967  0.60413367  1
  Se  Se29  1  0.23325400  0.09657300  0.43746700  1
  Se  Se30  1  0.86331900  0.76674600  0.43746700  1
  Se  Se31  1  0.00000000  0.00000000  0.18216400  1
  Se  Se32  1  0.90342700  0.76674600  0.93746700  1
  Se  Se33  1  0.66666667  0.33333333  0.01549733  1
  Se  Se34  1  0.57009367  0.47001433  0.77080033  1
  Se  Se35  1  0.23325400  0.13668100  0.93746700  1
  Se  Se36  1  0.86331900  0.09657300  0.93746700  1
  Se  Se37  1  0.89992067  0.42990633  0.77080033  1
  Se  Se38  1  0.52998567  0.10007933  0.77080033  1
  Se  Se39  1  0.66666667  0.33333333  0.51549733  1
  Se  Se40  1  0.57009367  0.10007933  0.27080033  1
  Se  Se41  1  0.33333333  0.66666667  0.34883067  1
  Se  Se42  1  0.23676033  0.80334767  0.10413367  1
  Se  Se43  1  0.89992067  0.47001433  0.27080033  1
  Se  Se44  1  0.52998567  0.42990633  0.27080033  1
  Se  Se45  1  0.56658733  0.76323967  0.10413367  1
  Se  Se46  1  0.19665233  0.43341267  0.10413367  1
  Se  Se47  1  0.33333333  0.66666667  0.84883067  1
