# generated using pymatgen
data_Ba5Ru2O11
_symmetry_space_group_name_H-M   'P 1'
_cell_length_a   6.07543200
_cell_length_b   10.48342400
_cell_length_c   18.27009757
_cell_angle_alpha   90.00000000
_cell_angle_beta   90.46765166
_cell_angle_gamma   90.00000000
_symmetry_Int_Tables_number   1
_chemical_formula_structural   Ba5Ru2O11
_chemical_formula_sum   'Ba20 Ru8 O44'
_cell_volume   1163.60804624
_cell_formula_units_Z   4
loop_
 _symmetry_equiv_pos_site_id
 _symmetry_equiv_pos_as_xyz
  1  'x, y, z'
loop_
 _atom_site_type_symbol
 _atom_site_label
 _atom_site_symmetry_multiplicity
 _atom_site_fract_x
 _atom_site_fract_y
 _atom_site_fract_z
 _atom_site_occupancy
  Ba  Ba0  1  0.50561100  0.83470300  0.48336700  1
  Ba  Ba1  1  0.50000000  0.83375300  0.25000000  1
  Ba  Ba2  1  0.99802750  0.99938750  0.36054500  1
  Ba  Ba3  1  0.00197250  0.99938750  0.13945500  1
  Ba  Ba4  1  0.99802750  0.00061250  0.86054500  1
  Ba  Ba5  1  0.00197250  0.00061250  0.63945500  1
  Ba  Ba6  1  0.49438900  0.83470300  0.01663300  1
  Ba  Ba7  1  0.50561100  0.16529700  0.98336700  1
  Ba  Ba8  1  0.49438900  0.16529700  0.51663300  1
  Ba  Ba9  1  0.50000000  0.16624700  0.75000000  1
  Ba  Ba10  1  0.00561100  0.33470300  0.48336700  1
  Ba  Ba11  1  0.00000000  0.33375300  0.25000000  1
  Ba  Ba12  1  0.49802750  0.49938750  0.36054500  1
  Ba  Ba13  1  0.50197250  0.49938750  0.13945500  1
  Ba  Ba14  1  0.49802750  0.50061250  0.86054500  1
  Ba  Ba15  1  0.50197250  0.50061250  0.63945500  1
  Ba  Ba16  1  0.99438900  0.33470300  0.01663300  1
  Ba  Ba17  1  0.00561100  0.66529700  0.98336700  1
  Ba  Ba18  1  0.99438900  0.66529700  0.51663300  1
  Ba  Ba19  1  0.00000000  0.66624700  0.75000000  1
  Ru  Ru20  1  0.49948350  0.83305450  0.82682700  1
  Ru  Ru21  1  0.50051650  0.83305450  0.67317300  1
  Ru  Ru22  1  0.49948350  0.16694550  0.32682700  1
  Ru  Ru23  1  0.50051650  0.16694550  0.17317300  1
  Ru  Ru24  1  0.99948350  0.33305450  0.82682700  1
  Ru  Ru25  1  0.00051650  0.33305450  0.67317300  1
  Ru  Ru26  1  0.99948350  0.66694550  0.32682700  1
  Ru  Ru27  1  0.00051650  0.66694550  0.17317300  1
  O  O28  1  0.10698750  0.96429850  0.99926800  1
  O  O29  1  0.50010150  0.98907750  0.61916400  1
  O  O30  1  0.49989850  0.98907750  0.88083600  1
  O  O31  1  0.27895800  0.90658500  0.74948400  1
  O  O32  1  0.26877050  0.75612150  0.61538900  1
  O  O33  1  0.72104200  0.90658500  0.75051600  1
  O  O34  1  0.89301250  0.96429850  0.50073200  1
  O  O35  1  0.26721300  0.75528200  0.88070100  1
  O  O36  1  0.50000000  0.68505300  0.75000000  1
  O  O37  1  0.73122950  0.75612150  0.88461100  1
  O  O38  1  0.73278700  0.75528200  0.61929900  1
  O  O39  1  0.26721300  0.24471800  0.38070100  1
  O  O40  1  0.26877050  0.24387850  0.11538900  1
  O  O41  1  0.50000000  0.31494700  0.25000000  1
  O  O42  1  0.27895800  0.09341500  0.24948400  1
  O  O43  1  0.10698750  0.03570150  0.49926800  1
  O  O44  1  0.73122950  0.24387850  0.38461100  1
  O  O45  1  0.73278700  0.24471800  0.11929900  1
  O  O46  1  0.72104200  0.09341500  0.25051600  1
  O  O47  1  0.50010150  0.01092250  0.11916400  1
  O  O48  1  0.49989850  0.01092250  0.38083600  1
  O  O49  1  0.89301250  0.03570150  0.00073200  1
  O  O50  1  0.60698750  0.46429850  0.99926800  1
  O  O51  1  0.00010150  0.48907750  0.61916400  1
  O  O52  1  0.99989850  0.48907750  0.88083600  1
  O  O53  1  0.77895800  0.40658500  0.74948400  1
  O  O54  1  0.76877050  0.25612150  0.61538900  1
  O  O55  1  0.22104200  0.40658500  0.75051600  1
  O  O56  1  0.39301250  0.46429850  0.50073200  1
  O  O57  1  0.76721300  0.25528200  0.88070100  1
  O  O58  1  0.00000000  0.18505300  0.75000000  1
  O  O59  1  0.23122950  0.25612150  0.88461100  1
  O  O60  1  0.23278700  0.25528200  0.61929900  1
  O  O61  1  0.76721300  0.74471800  0.38070100  1
  O  O62  1  0.76877050  0.74387850  0.11538900  1
  O  O63  1  0.00000000  0.81494700  0.25000000  1
  O  O64  1  0.77895800  0.59341500  0.24948400  1
  O  O65  1  0.60698750  0.53570150  0.49926800  1
  O  O66  1  0.23122950  0.74387850  0.38461100  1
  O  O67  1  0.23278700  0.74471800  0.11929900  1
  O  O68  1  0.22104200  0.59341500  0.25051600  1
  O  O69  1  0.00010150  0.51092250  0.11916400  1
  O  O70  1  0.99989850  0.51092250  0.38083600  1
  O  O71  1  0.39301250  0.53570150  0.00073200  1
