# generated using pymatgen
data_K5La4Si4O16F
_symmetry_space_group_name_H-M   'P 1'
_cell_length_a   12.59822800
_cell_length_b   12.59822800
_cell_length_c   5.57027200
_cell_angle_alpha   90.00000000
_cell_angle_beta   90.00000000
_cell_angle_gamma   90.00000000
_symmetry_Int_Tables_number   1
_chemical_formula_structural   K5La4Si4O16F
_chemical_formula_sum   'K10 La8 Si8 O32 F2'
_cell_volume   884.08766306
_cell_formula_units_Z   2
loop_
 _symmetry_equiv_pos_site_id
 _symmetry_equiv_pos_as_xyz
  1  'x, y, z'
loop_
 _atom_site_type_symbol
 _atom_site_label
 _atom_site_symmetry_multiplicity
 _atom_site_fract_x
 _atom_site_fract_y
 _atom_site_fract_z
 _atom_site_occupancy
  K  K0  1  0.39820350  0.09212950  0.00159550  1
  K  K1  1  0.60179650  0.90787050  0.00159550  1
  K  K2  1  0.59212950  0.10179650  0.49840450  1
  K  K3  1  0.40787050  0.89820350  0.49840450  1
  K  K4  1  0.00000000  0.00000000  0.50000000  1
  K  K5  1  0.89820350  0.59212950  0.50159550  1
  K  K6  1  0.10179650  0.40787050  0.50159550  1
  K  K7  1  0.09212950  0.60179650  0.99840450  1
  K  K8  1  0.90787050  0.39820350  0.99840450  1
  K  K9  1  0.50000000  0.50000000  0.00000000  1
  La  La10  1  0.38017700  0.31488100  0.50886200  1
  La  La11  1  0.61982300  0.68511900  0.50886200  1
  La  La12  1  0.81488100  0.11982300  0.99113800  1
  La  La13  1  0.18511900  0.88017700  0.99113800  1
  La  La14  1  0.88017700  0.81488100  0.00886200  1
  La  La15  1  0.11982300  0.18511900  0.00886200  1
  La  La16  1  0.31488100  0.61982300  0.49113800  1
  La  La17  1  0.68511900  0.38017700  0.49113800  1
  Si  Si18  1  0.75390450  0.89825350  0.49677950  1
  Si  Si19  1  0.24609550  0.10174650  0.49677950  1
  Si  Si20  1  0.39825350  0.74609550  0.00322050  1
  Si  Si21  1  0.60174650  0.25390450  0.00322050  1
  Si  Si22  1  0.25390450  0.39825350  0.99677950  1
  Si  Si23  1  0.74609550  0.60174650  0.99677950  1
  Si  Si24  1  0.89825350  0.24609550  0.50322050  1
  Si  Si25  1  0.10174650  0.75390450  0.50322050  1
  O  O26  1  0.79437200  0.96331900  0.25532800  1
  O  O27  1  0.20562800  0.03668100  0.25532800  1
  O  O28  1  0.46331900  0.70562800  0.24467200  1
  O  O29  1  0.53668100  0.29437200  0.24467200  1
  O  O30  1  0.30181100  0.27683200  0.97618300  1
  O  O31  1  0.69818900  0.72316800  0.97618300  1
  O  O32  1  0.77683200  0.19818900  0.52381700  1
  O  O33  1  0.22316800  0.80181100  0.52381700  1
  O  O34  1  0.37647100  0.11468400  0.50365700  1
  O  O35  1  0.62352900  0.88531600  0.50365700  1
  O  O36  1  0.61468400  0.12352900  0.99634300  1
  O  O37  1  0.38531600  0.87647100  0.99634300  1
  O  O38  1  0.20146750  0.04392850  0.74383850  1
  O  O39  1  0.79853250  0.95607150  0.74383850  1
  O  O40  1  0.54392850  0.29853250  0.75616150  1
  O  O41  1  0.45607150  0.70146750  0.75616150  1
  O  O42  1  0.29437200  0.46331900  0.75532800  1
  O  O43  1  0.70562800  0.53668100  0.75532800  1
  O  O44  1  0.96331900  0.20562800  0.74467200  1
  O  O45  1  0.03668100  0.79437200  0.74467200  1
  O  O46  1  0.80181100  0.77683200  0.47618300  1
  O  O47  1  0.19818900  0.22316800  0.47618300  1
  O  O48  1  0.27683200  0.69818900  0.02381700  1
  O  O49  1  0.72316800  0.30181100  0.02381700  1
  O  O50  1  0.87647100  0.61468400  0.00365700  1
  O  O51  1  0.12352900  0.38531600  0.00365700  1
  O  O52  1  0.11468400  0.62352900  0.49634300  1
  O  O53  1  0.88531600  0.37647100  0.49634300  1
  O  O54  1  0.70146750  0.54392850  0.24383850  1
  O  O55  1  0.29853250  0.45607150  0.24383850  1
  O  O56  1  0.04392850  0.79853250  0.25616150  1
  O  O57  1  0.95607150  0.20146750  0.25616150  1
  F  F58  1  0.00000000  0.00000000  0.00000000  1
  F  F59  1  0.50000000  0.50000000  0.50000000  1
