# generated using pymatgen
data_CsNa2Be6(BO3)5
_symmetry_space_group_name_H-M   'P 1'
_cell_length_a   13.99732800
_cell_length_b   4.45014400
_cell_length_c   10.87228913
_cell_angle_alpha   90.00000000
_cell_angle_beta   102.99231516
_cell_angle_gamma   90.00000000
_symmetry_Int_Tables_number   1
_chemical_formula_structural   CsNa2Be6(BO3)5
_chemical_formula_sum   'Cs2 Na4 Be12 B10 O30'
_cell_volume   659.89915722
_cell_formula_units_Z   2
loop_
 _symmetry_equiv_pos_site_id
 _symmetry_equiv_pos_as_xyz
  1  'x, y, z'
loop_
 _atom_site_type_symbol
 _atom_site_label
 _atom_site_symmetry_multiplicity
 _atom_site_fract_x
 _atom_site_fract_y
 _atom_site_fract_z
 _atom_site_occupancy
  Cs  Cs0  1  0.00000000  0.45961900  0.00000000  1
  Cs  Cs1  1  0.50000000  0.95961900  0.00000000  1
  Na  Na2  1  0.68789850  0.48450950  0.54358100  1
  Na  Na3  1  0.81210150  0.98450950  0.45641900  1
  Na  Na4  1  0.18789850  0.98450950  0.54358100  1
  Na  Na5  1  0.31210150  0.48450950  0.45641900  1
  Be  Be6  1  0.75779500  0.94707300  0.92250400  1
  Be  Be7  1  0.74220500  0.44707300  0.07749600  1
  Be  Be8  1  0.63965100  0.96119100  0.70308100  1
  Be  Be9  1  0.86034900  0.46119100  0.29691900  1
  Be  Be10  1  0.50957750  0.46006150  0.63520300  1
  Be  Be11  1  0.99042250  0.96006150  0.36479700  1
  Be  Be12  1  0.25779500  0.44707300  0.92250400  1
  Be  Be13  1  0.24220500  0.94707300  0.07749600  1
  Be  Be14  1  0.13965100  0.46119100  0.70308100  1
  Be  Be15  1  0.36034900  0.96119100  0.29691900  1
  Be  Be16  1  0.00957750  0.96006150  0.63520300  1
  Be  Be17  1  0.49042250  0.46006150  0.36479700  1
  B  B18  1  0.83246400  0.97914300  0.72473600  1
  B  B19  1  0.66753600  0.47914300  0.27526400  1
  B  B20  1  0.65973650  0.45117450  0.83631800  1
  B  B21  1  0.84026350  0.95117450  0.16368200  1
  B  B22  1  0.00000000  0.45416300  0.50000000  1
  B  B23  1  0.33246400  0.47914300  0.72473600  1
  B  B24  1  0.16753600  0.97914300  0.27526400  1
  B  B25  1  0.15973650  0.95117450  0.83631800  1
  B  B26  1  0.34026350  0.45117450  0.16368200  1
  B  B27  1  0.50000000  0.95416300  0.50000000  1
  O  O28  1  0.66385100  0.75969300  0.83424300  1
  O  O29  1  0.83614900  0.25969300  0.16575700  1
  O  O30  1  0.71271750  0.29185350  0.93804400  1
  O  O31  1  0.78728250  0.79185350  0.06195600  1
  O  O32  1  0.73632300  0.98966200  0.64480900  1
  O  O33  1  0.76367700  0.48966200  0.35519100  1
  O  O34  1  0.00000000  0.76326400  0.50000000  1
  O  O35  1  0.55267100  0.79570300  0.60195900  1
  O  O36  1  0.94732900  0.29570300  0.39804100  1
  O  O37  1  0.60215950  0.29902450  0.73522800  1
  O  O38  1  0.89784050  0.79902450  0.26477200  1
  O  O39  1  0.84567950  0.95830950  0.85315400  1
  O  O40  1  0.65432050  0.45830950  0.14684600  1
  O  O41  1  0.90773950  0.98985650  0.66416800  1
  O  O42  1  0.59226050  0.48985650  0.33583200  1
  O  O43  1  0.16385100  0.25969300  0.83424300  1
  O  O44  1  0.33614900  0.75969300  0.16575700  1
  O  O45  1  0.21271750  0.79185350  0.93804400  1
  O  O46  1  0.28728250  0.29185350  0.06195600  1
  O  O47  1  0.23632300  0.48966200  0.64480900  1
  O  O48  1  0.26367700  0.98966200  0.35519100  1
  O  O49  1  0.50000000  0.26326400  0.50000000  1
  O  O50  1  0.05267100  0.29570300  0.60195900  1
  O  O51  1  0.44732900  0.79570300  0.39804100  1
  O  O52  1  0.10215950  0.79902450  0.73522800  1
  O  O53  1  0.39784050  0.29902450  0.26477200  1
  O  O54  1  0.34567950  0.45830950  0.85315400  1
  O  O55  1  0.15432050  0.95830950  0.14684600  1
  O  O56  1  0.40773950  0.48985650  0.66416800  1
  O  O57  1  0.09226050  0.98985650  0.33583200  1
