# generated using pymatgen
data_Ba3NaTaO6
_symmetry_space_group_name_H-M   'P 1'
_cell_length_a   10.40241249
_cell_length_b   10.40241249
_cell_length_c   12.11071166
_cell_angle_alpha   90.00000000
_cell_angle_beta   90.00000000
_cell_angle_gamma   120.00000000
_symmetry_Int_Tables_number   1
_chemical_formula_structural   Ba3NaTaO6
_chemical_formula_sum   'Ba18 Na6 Ta6 O36'
_cell_volume   1134.92833156
_cell_formula_units_Z   6
loop_
 _symmetry_equiv_pos_site_id
 _symmetry_equiv_pos_as_xyz
  1  'x, y, z'
loop_
 _atom_site_type_symbol
 _atom_site_label
 _atom_site_symmetry_multiplicity
 _atom_site_fract_x
 _atom_site_fract_y
 _atom_site_fract_z
 _atom_site_occupancy
  Ba  Ba0  1  0.66666667  0.68425933  0.58333333  1
  Ba  Ba1  1  0.31574067  0.98240733  0.58333333  1
  Ba  Ba2  1  0.98240733  0.66666667  0.41666667  1
  Ba  Ba3  1  0.33333333  0.31574067  0.41666667  1
  Ba  Ba4  1  0.68425933  0.01759267  0.41666667  1
  Ba  Ba5  1  0.01759267  0.33333333  0.58333333  1
  Ba  Ba6  1  0.33333333  0.01759267  0.91666667  1
  Ba  Ba7  1  0.98240733  0.31574067  0.91666667  1
  Ba  Ba8  1  0.64907400  0.00000000  0.75000000  1
  Ba  Ba9  1  0.00000000  0.64907400  0.75000000  1
  Ba  Ba10  1  0.35092600  0.35092600  0.75000000  1
  Ba  Ba11  1  0.68425933  0.66666667  0.91666667  1
  Ba  Ba12  1  0.00000000  0.35092600  0.25000000  1
  Ba  Ba13  1  0.64907400  0.64907400  0.25000000  1
  Ba  Ba14  1  0.31574067  0.33333333  0.08333333  1
  Ba  Ba15  1  0.66666667  0.98240733  0.08333333  1
  Ba  Ba16  1  0.01759267  0.68425933  0.08333333  1
  Ba  Ba17  1  0.35092600  0.00000000  0.25000000  1
  Na  Na18  1  0.00000000  0.00000000  0.25000000  1
  Na  Na19  1  0.00000000  0.00000000  0.75000000  1
  Na  Na20  1  0.66666667  0.33333333  0.58333333  1
  Na  Na21  1  0.66666667  0.33333333  0.08333333  1
  Na  Na22  1  0.33333333  0.66666667  0.91666667  1
  Na  Na23  1  0.33333333  0.66666667  0.41666667  1
  Ta  Ta24  1  0.00000000  0.00000000  0.00000000  1
  Ta  Ta25  1  0.00000000  0.00000000  0.50000000  1
  Ta  Ta26  1  0.66666667  0.33333333  0.33333333  1
  Ta  Ta27  1  0.66666667  0.33333333  0.83333333  1
  Ta  Ta28  1  0.33333333  0.66666667  0.66666667  1
  Ta  Ta29  1  0.33333333  0.66666667  0.16666667  1
  O  O30  1  0.83158733  0.85190567  0.40247667  1
  O  O31  1  0.14809433  0.97968167  0.40247667  1
  O  O32  1  0.02031833  0.16841267  0.40247667  1
  O  O33  1  0.64634833  0.48142767  0.43085667  1
  O  O34  1  0.51857233  0.16492067  0.43085667  1
  O  O35  1  0.83507933  0.35365167  0.43085667  1
  O  O36  1  0.16841267  0.14809433  0.59752333  1
  O  O37  1  0.85190567  0.02031833  0.59752333  1
  O  O38  1  0.97968167  0.83158733  0.59752333  1
  O  O39  1  0.35365167  0.51857233  0.56914333  1
  O  O40  1  0.16492067  0.64634833  0.56914333  1
  O  O41  1  0.48142767  0.83507933  0.56914333  1
  O  O42  1  0.49825400  0.18523900  0.73581000  1
  O  O43  1  0.81476100  0.31301500  0.73581000  1
  O  O44  1  0.68698500  0.50174600  0.73581000  1
  O  O45  1  0.31301500  0.81476100  0.76419000  1
  O  O46  1  0.18523900  0.49825400  0.76419000  1
  O  O47  1  0.50174600  0.68698500  0.76419000  1
  O  O48  1  0.83507933  0.48142767  0.93085667  1
  O  O49  1  0.51857233  0.35365167  0.93085667  1
  O  O50  1  0.64634833  0.16492067  0.93085667  1
  O  O51  1  0.02031833  0.85190567  0.90247667  1
  O  O52  1  0.83158733  0.97968167  0.90247667  1
  O  O53  1  0.14809433  0.16841267  0.90247667  1
  O  O54  1  0.16492067  0.51857233  0.06914333  1
  O  O55  1  0.48142767  0.64634833  0.06914333  1
  O  O56  1  0.35365167  0.83507933  0.06914333  1
  O  O57  1  0.97968167  0.14809433  0.09752333  1
  O  O58  1  0.85190567  0.83158733  0.09752333  1
  O  O59  1  0.16841267  0.02031833  0.09752333  1
  O  O60  1  0.50174600  0.81476100  0.26419000  1
  O  O61  1  0.18523900  0.68698500  0.26419000  1
  O  O62  1  0.31301500  0.49825400  0.26419000  1
  O  O63  1  0.68698500  0.18523900  0.23581000  1
  O  O64  1  0.49825400  0.31301500  0.23581000  1
  O  O65  1  0.81476100  0.50174600  0.23581000  1
