# generated using pymatgen
data_Na3Np(HO3)2
_symmetry_space_group_name_H-M   'P 1'
_cell_length_a   5.98630600
_cell_length_b   10.48617600
_cell_length_c   20.15742800
_cell_angle_alpha   90.00000000
_cell_angle_beta   90.00000000
_cell_angle_gamma   90.00000000
_symmetry_Int_Tables_number   1
_chemical_formula_structural   Na3Np(HO3)2
_chemical_formula_sum   'Na24 Np8 H16 O48'
_cell_volume   1265.35146611
_cell_formula_units_Z   8
loop_
 _symmetry_equiv_pos_site_id
 _symmetry_equiv_pos_as_xyz
  1  'x, y, z'
loop_
 _atom_site_type_symbol
 _atom_site_label
 _atom_site_symmetry_multiplicity
 _atom_site_fract_x
 _atom_site_fract_y
 _atom_site_fract_z
 _atom_site_occupancy
  Na  Na0  1  0.00000000  0.63085000  0.00000000  1
  Na  Na1  1  0.47600900  0.79440600  0.08754600  1
  Na  Na2  1  0.22600900  0.54440600  0.16245400  1
  Na  Na3  1  0.75000000  0.88085000  0.75000000  1
  Na  Na4  1  0.77399100  0.54440600  0.83754600  1
  Na  Na5  1  0.52399100  0.79440600  0.91245400  1
  Na  Na6  1  0.00000000  0.13085000  0.50000000  1
  Na  Na7  1  0.47600900  0.29440600  0.58754600  1
  Na  Na8  1  0.22600900  0.04440600  0.66245400  1
  Na  Na9  1  0.75000000  0.38085000  0.25000000  1
  Na  Na10  1  0.77399100  0.04440600  0.33754600  1
  Na  Na11  1  0.52399100  0.29440600  0.41245400  1
  Na  Na12  1  0.50000000  0.13085000  0.00000000  1
  Na  Na13  1  0.97600900  0.29440600  0.08754600  1
  Na  Na14  1  0.72600900  0.04440600  0.16245400  1
  Na  Na15  1  0.25000000  0.38085000  0.75000000  1
  Na  Na16  1  0.27399100  0.04440600  0.83754600  1
  Na  Na17  1  0.02399100  0.29440600  0.91245400  1
  Na  Na18  1  0.50000000  0.63085000  0.50000000  1
  Na  Na19  1  0.97600900  0.79440600  0.58754600  1
  Na  Na20  1  0.72600900  0.54440600  0.66245400  1
  Na  Na21  1  0.25000000  0.88085000  0.25000000  1
  Na  Na22  1  0.27399100  0.54440600  0.33754600  1
  Na  Na23  1  0.02399100  0.79440600  0.41245400  1
  Np  Np24  1  0.00000000  0.97060000  0.00000000  1
  Np  Np25  1  0.25000000  0.72060000  0.75000000  1
  Np  Np26  1  0.00000000  0.47060000  0.50000000  1
  Np  Np27  1  0.25000000  0.22060000  0.25000000  1
  Np  Np28  1  0.50000000  0.47060000  0.00000000  1
  Np  Np29  1  0.75000000  0.22060000  0.75000000  1
  Np  Np30  1  0.50000000  0.97060000  0.50000000  1
  Np  Np31  1  0.75000000  0.72060000  0.25000000  1
  H  H32  1  0.91663750  0.79503300  0.10537450  1
  H  H33  1  0.66663750  0.54503300  0.14462550  1
  H  H34  1  0.33336250  0.54503300  0.85537450  1
  H  H35  1  0.08336250  0.79503300  0.89462550  1
  H  H36  1  0.91663750  0.29503300  0.60537450  1
  H  H37  1  0.66663750  0.04503300  0.64462550  1
  H  H38  1  0.33336250  0.04503300  0.35537450  1
  H  H39  1  0.08336250  0.29503300  0.39462550  1
  H  H40  1  0.41663750  0.29503300  0.10537450  1
  H  H41  1  0.16663750  0.04503300  0.14462550  1
  H  H42  1  0.83336250  0.04503300  0.85537450  1
  H  H43  1  0.58336250  0.29503300  0.89462550  1
  H  H44  1  0.41663750  0.79503300  0.60537450  1
  H  H45  1  0.16663750  0.54503300  0.64462550  1
  H  H46  1  0.83336250  0.54503300  0.35537450  1
  H  H47  1  0.58336250  0.79503300  0.39462550  1
  O  O48  1  0.34123300  0.59904100  0.05582700  1
  O  O49  1  0.25449650  0.96985300  0.05840650  1
  O  O50  1  0.85437800  0.81271900  0.06100900  1
  O  O51  1  0.60437800  0.56271900  0.18899100  1
  O  O52  1  0.00449650  0.71985300  0.19159350  1
  O  O53  1  0.59123300  0.84904100  0.19417300  1
  O  O54  1  0.40876700  0.84904100  0.80582700  1
  O  O55  1  0.99550350  0.71985300  0.80840650  1
  O  O56  1  0.39562200  0.56271900  0.81100900  1
  O  O57  1  0.14562200  0.81271900  0.93899100  1
  O  O58  1  0.74550350  0.96985300  0.94159350  1
  O  O59  1  0.65876700  0.59904100  0.94417300  1
  O  O60  1  0.34123300  0.09904100  0.55582700  1
  O  O61  1  0.25449650  0.46985300  0.55840650  1
  O  O62  1  0.85437800  0.31271900  0.56100900  1
  O  O63  1  0.60437800  0.06271900  0.68899100  1
  O  O64  1  0.00449650  0.21985300  0.69159350  1
  O  O65  1  0.59123300  0.34904100  0.69417300  1
  O  O66  1  0.40876700  0.34904100  0.30582700  1
  O  O67  1  0.99550350  0.21985300  0.30840650  1
  O  O68  1  0.39562200  0.06271900  0.31100900  1
  O  O69  1  0.14562200  0.31271900  0.43899100  1
  O  O70  1  0.74550350  0.46985300  0.44159350  1
  O  O71  1  0.65876700  0.09904100  0.44417300  1
  O  O72  1  0.84123300  0.09904100  0.05582700  1
  O  O73  1  0.75449650  0.46985300  0.05840650  1
  O  O74  1  0.35437800  0.31271900  0.06100900  1
  O  O75  1  0.10437800  0.06271900  0.18899100  1
  O  O76  1  0.50449650  0.21985300  0.19159350  1
  O  O77  1  0.09123300  0.34904100  0.19417300  1
  O  O78  1  0.90876700  0.34904100  0.80582700  1
  O  O79  1  0.49550350  0.21985300  0.80840650  1
  O  O80  1  0.89562200  0.06271900  0.81100900  1
  O  O81  1  0.64562200  0.31271900  0.93899100  1
  O  O82  1  0.24550350  0.46985300  0.94159350  1
  O  O83  1  0.15876700  0.09904100  0.94417300  1
  O  O84  1  0.84123300  0.59904100  0.55582700  1
  O  O85  1  0.75449650  0.96985300  0.55840650  1
  O  O86  1  0.35437800  0.81271900  0.56100900  1
  O  O87  1  0.10437800  0.56271900  0.68899100  1
  O  O88  1  0.50449650  0.71985300  0.69159350  1
  O  O89  1  0.09123300  0.84904100  0.69417300  1
  O  O90  1  0.90876700  0.84904100  0.30582700  1
  O  O91  1  0.49550350  0.71985300  0.30840650  1
  O  O92  1  0.89562200  0.56271900  0.31100900  1
  O  O93  1  0.64562200  0.81271900  0.43899100  1
  O  O94  1  0.24550350  0.96985300  0.44159350  1
  O  O95  1  0.15876700  0.59904100  0.44417300  1
