# generated using pymatgen
data_KNa2LiZr2(Si2O5)6
_symmetry_space_group_name_H-M   'P 1'
_cell_length_a   10.28358000
_cell_length_b   18.05105800
_cell_length_c   14.66236300
_cell_angle_alpha   90.00000000
_cell_angle_beta   90.00000000
_cell_angle_gamma   90.00000000
_symmetry_Int_Tables_number   1
_chemical_formula_structural   KNa2LiZr2(Si2O5)6
_chemical_formula_sum   'K4 Na8 Li4 Zr8 Si48 O120'
_cell_volume   2721.76709825
_cell_formula_units_Z   4
loop_
 _symmetry_equiv_pos_site_id
 _symmetry_equiv_pos_as_xyz
  1  'x, y, z'
loop_
 _atom_site_type_symbol
 _atom_site_label
 _atom_site_symmetry_multiplicity
 _atom_site_fract_x
 _atom_site_fract_y
 _atom_site_fract_z
 _atom_site_occupancy
  K  K0  1  0.50000000  0.00000000  0.75000000  1
  K  K1  1  0.50000000  0.00000000  0.25000000  1
  K  K2  1  0.00000000  0.50000000  0.75000000  1
  K  K3  1  0.00000000  0.50000000  0.25000000  1
  Na  Na4  1  0.51390650  0.32639050  0.50000000  1
  Na  Na5  1  0.48609350  0.32639050  0.00000000  1
  Na  Na6  1  0.98609350  0.17360950  0.50000000  1
  Na  Na7  1  0.01390650  0.17360950  0.00000000  1
  Na  Na8  1  0.01390650  0.82639050  0.50000000  1
  Na  Na9  1  0.98609350  0.82639050  0.00000000  1
  Na  Na10  1  0.48609350  0.67360950  0.50000000  1
  Na  Na11  1  0.51390650  0.67360950  0.00000000  1
  Li  Li12  1  0.00000000  0.00000000  0.75000000  1
  Li  Li13  1  0.00000000  0.00000000  0.25000000  1
  Li  Li14  1  0.50000000  0.50000000  0.75000000  1
  Li  Li15  1  0.50000000  0.50000000  0.25000000  1
  Zr  Zr16  1  0.50000000  0.33110000  0.75000000  1
  Zr  Zr17  1  0.50000000  0.33110000  0.25000000  1
  Zr  Zr18  1  0.00000000  0.16890000  0.75000000  1
  Zr  Zr19  1  0.00000000  0.16890000  0.25000000  1
  Zr  Zr20  1  0.00000000  0.83110000  0.75000000  1
  Zr  Zr21  1  0.00000000  0.83110000  0.25000000  1
  Zr  Zr22  1  0.50000000  0.66890000  0.75000000  1
  Zr  Zr23  1  0.50000000  0.66890000  0.25000000  1
  Si  Si24  1  0.23182850  0.38781550  0.89139300  1
  Si  Si25  1  0.23182850  0.38781550  0.10860700  1
  Si  Si26  1  0.29245800  0.43787100  0.60768100  1
  Si  Si27  1  0.29245800  0.43787100  0.39231900  1
  Si  Si28  1  0.44691650  0.17529250  0.60937100  1
  Si  Si29  1  0.44691650  0.17529250  0.39062900  1
  Si  Si30  1  0.55308350  0.17529250  0.89062900  1
  Si  Si31  1  0.55308350  0.17529250  0.10937100  1
  Si  Si32  1  0.70754200  0.43787100  0.89231900  1
  Si  Si33  1  0.70754200  0.43787100  0.10768100  1
  Si  Si34  1  0.73182850  0.11218450  0.60860700  1
  Si  Si35  1  0.73182850  0.11218450  0.39139300  1
  Si  Si36  1  0.76817150  0.38781550  0.60860700  1
  Si  Si37  1  0.76817150  0.38781550  0.39139300  1
  Si  Si38  1  0.79245800  0.06212900  0.10768100  1
  Si  Si39  1  0.79245800  0.06212900  0.89231900  1
  Si  Si40  1  0.94691650  0.32470750  0.89062900  1
  Si  Si41  1  0.94691650  0.32470750  0.10937100  1
  Si  Si42  1  0.05308350  0.32470750  0.39062900  1
  Si  Si43  1  0.05308350  0.32470750  0.60937100  1
  Si  Si44  1  0.20754200  0.06212900  0.60768100  1
  Si  Si45  1  0.20754200  0.06212900  0.39231900  1
  Si  Si46  1  0.26817150  0.11218450  0.89139300  1
  Si  Si47  1  0.26817150  0.11218450  0.10860700  1
  Si  Si48  1  0.73182850  0.88781550  0.89139300  1
  Si  Si49  1  0.73182850  0.88781550  0.10860700  1
  Si  Si50  1  0.79245800  0.93787100  0.60768100  1
  Si  Si51  1  0.79245800  0.93787100  0.39231900  1
  Si  Si52  1  0.94691650  0.67529250  0.60937100  1
  Si  Si53  1  0.94691650  0.67529250  0.39062900  1
  Si  Si54  1  0.05308350  0.67529250  0.89062900  1
  Si  Si55  1  0.05308350  0.67529250  0.10937100  1
  Si  Si56  1  0.20754200  0.93787100  0.89231900  1
  Si  Si57  1  0.20754200  0.93787100  0.10768100  1
  Si  Si58  1  0.23182850  0.61218450  0.60860700  1
  Si  Si59  1  0.23182850  0.61218450  0.39139300  1
  Si  Si60  1  0.26817150  0.88781550  0.60860700  1
  Si  Si61  1  0.26817150  0.88781550  0.39139300  1
  Si  Si62  1  0.29245800  0.56212900  0.10768100  1
  Si  Si63  1  0.29245800  0.56212900  0.89231900  1
  Si  Si64  1  0.44691650  0.82470750  0.89062900  1
  Si  Si65  1  0.44691650  0.82470750  0.10937100  1
  Si  Si66  1  0.55308350  0.82470750  0.39062900  1
  Si  Si67  1  0.55308350  0.82470750  0.60937100  1
  Si  Si68  1  0.70754200  0.56212900  0.60768100  1
  Si  Si69  1  0.70754200  0.56212900  0.39231900  1
  Si  Si70  1  0.76817150  0.61218450  0.89139300  1
  Si  Si71  1  0.76817150  0.61218450  0.10860700  1
  O  O72  1  0.16745750  0.38488550  0.63022300  1
  O  O73  1  0.16745750  0.38488550  0.36977700  1
  O  O74  1  0.23759300  0.47794700  0.87701500  1
  O  O75  1  0.23759300  0.47794700  0.12298500  1
  O  O76  1  0.25713100  0.36945600  0.00000000  1
  O  O77  1  0.33660750  0.42426350  0.50000000  1
  O  O78  1  0.34053850  0.34323150  0.83675200  1
  O  O79  1  0.34053850  0.34323150  0.16324800  1
  O  O80  1  0.42860950  0.25288450  0.66055700  1
  O  O81  1  0.42860950  0.25288450  0.33944300  1
  O  O82  1  0.41795550  0.13275450  0.86208300  1
  O  O83  1  0.41795550  0.13275450  0.13791700  1
  O  O84  1  0.41466100  0.42143300  0.67245900  1
  O  O85  1  0.41466100  0.42143300  0.32754100  1
  O  O86  1  0.45291950  0.19515550  0.50000000  1
  O  O87  1  0.54708050  0.19515550  0.00000000  1
  O  O88  1  0.58533900  0.42143300  0.82754100  1
  O  O89  1  0.58533900  0.42143300  0.17245900  1
  O  O90  1  0.58204450  0.13275450  0.63791700  1
  O  O91  1  0.58204450  0.13275450  0.36208300  1
  O  O92  1  0.57139050  0.25288450  0.16055700  1
  O  O93  1  0.57139050  0.25288450  0.83944300  1
  O  O94  1  0.65946150  0.34323150  0.66324800  1
  O  O95  1  0.65946150  0.34323150  0.33675200  1
  O  O96  1  0.66339250  0.42426350  0.00000000  1
  O  O97  1  0.66745750  0.11511450  0.86977700  1
  O  O98  1  0.66745750  0.11511450  0.13022300  1
  O  O99  1  0.74286900  0.36945600  0.50000000  1
  O  O100  1  0.76240700  0.47794700  0.62298500  1
  O  O101  1  0.76240700  0.47794700  0.37701500  1
  O  O102  1  0.73759300  0.02205300  0.62298500  1
  O  O103  1  0.73759300  0.02205300  0.37701500  1
  O  O104  1  0.75713100  0.13054400  0.50000000  1
  O  O105  1  0.83254250  0.38488550  0.86977700  1
  O  O106  1  0.83254250  0.38488550  0.13022300  1
  O  O107  1  0.83660750  0.07573650  0.00000000  1
  O  O108  1  0.84053850  0.15676850  0.66324800  1
  O  O109  1  0.84053850  0.15676850  0.33675200  1
  O  O110  1  0.92860950  0.24711550  0.83944300  1
  O  O111  1  0.92860950  0.24711550  0.16055700  1
  O  O112  1  0.91795550  0.36724550  0.63791700  1
  O  O113  1  0.91795550  0.36724550  0.36208300  1
  O  O114  1  0.91466100  0.07856700  0.82754100  1
  O  O115  1  0.91466100  0.07856700  0.17245900  1
  O  O116  1  0.95291950  0.30484450  0.00000000  1
  O  O117  1  0.04708050  0.30484450  0.50000000  1
  O  O118  1  0.08533900  0.07856700  0.67245900  1
  O  O119  1  0.08533900  0.07856700  0.32754100  1
  O  O120  1  0.08204450  0.36724550  0.86208300  1
  O  O121  1  0.08204450  0.36724550  0.13791700  1
  O  O122  1  0.07139050  0.24711550  0.66055700  1
  O  O123  1  0.07139050  0.24711550  0.33944300  1
  O  O124  1  0.15946150  0.15676850  0.83675200  1
  O  O125  1  0.15946150  0.15676850  0.16324800  1
  O  O126  1  0.16339250  0.07573650  0.50000000  1
  O  O127  1  0.24286900  0.13054400  0.00000000  1
  O  O128  1  0.26240700  0.02205300  0.87701500  1
  O  O129  1  0.26240700  0.02205300  0.12298500  1
  O  O130  1  0.33254250  0.11511450  0.63022300  1
  O  O131  1  0.33254250  0.11511450  0.36977700  1
  O  O132  1  0.66745750  0.88488550  0.63022300  1
  O  O133  1  0.66745750  0.88488550  0.36977700  1
  O  O134  1  0.73759300  0.97794700  0.87701500  1
  O  O135  1  0.73759300  0.97794700  0.12298500  1
  O  O136  1  0.75713100  0.86945600  0.00000000  1
  O  O137  1  0.83660750  0.92426350  0.50000000  1
  O  O138  1  0.84053850  0.84323150  0.83675200  1
  O  O139  1  0.84053850  0.84323150  0.16324800  1
  O  O140  1  0.92860950  0.75288450  0.66055700  1
  O  O141  1  0.92860950  0.75288450  0.33944300  1
  O  O142  1  0.91795550  0.63275450  0.86208300  1
  O  O143  1  0.91795550  0.63275450  0.13791700  1
  O  O144  1  0.91466100  0.92143300  0.67245900  1
  O  O145  1  0.91466100  0.92143300  0.32754100  1
  O  O146  1  0.95291950  0.69515550  0.50000000  1
  O  O147  1  0.04708050  0.69515550  0.00000000  1
  O  O148  1  0.08533900  0.92143300  0.82754100  1
  O  O149  1  0.08533900  0.92143300  0.17245900  1
  O  O150  1  0.08204450  0.63275450  0.63791700  1
  O  O151  1  0.08204450  0.63275450  0.36208300  1
  O  O152  1  0.07139050  0.75288450  0.16055700  1
  O  O153  1  0.07139050  0.75288450  0.83944300  1
  O  O154  1  0.15946150  0.84323150  0.66324800  1
  O  O155  1  0.15946150  0.84323150  0.33675200  1
  O  O156  1  0.16339250  0.92426350  0.00000000  1
  O  O157  1  0.16745750  0.61511450  0.86977700  1
  O  O158  1  0.16745750  0.61511450  0.13022300  1
  O  O159  1  0.24286900  0.86945600  0.50000000  1
  O  O160  1  0.26240700  0.97794700  0.62298500  1
  O  O161  1  0.26240700  0.97794700  0.37701500  1
  O  O162  1  0.23759300  0.52205300  0.62298500  1
  O  O163  1  0.23759300  0.52205300  0.37701500  1
  O  O164  1  0.25713100  0.63054400  0.50000000  1
  O  O165  1  0.33254250  0.88488550  0.86977700  1
  O  O166  1  0.33254250  0.88488550  0.13022300  1
  O  O167  1  0.33660750  0.57573650  0.00000000  1
  O  O168  1  0.34053850  0.65676850  0.66324800  1
  O  O169  1  0.34053850  0.65676850  0.33675200  1
  O  O170  1  0.42860950  0.74711550  0.83944300  1
  O  O171  1  0.42860950  0.74711550  0.16055700  1
  O  O172  1  0.41795550  0.86724550  0.63791700  1
  O  O173  1  0.41795550  0.86724550  0.36208300  1
  O  O174  1  0.41466100  0.57856700  0.82754100  1
  O  O175  1  0.41466100  0.57856700  0.17245900  1
  O  O176  1  0.45291950  0.80484450  0.00000000  1
  O  O177  1  0.54708050  0.80484450  0.50000000  1
  O  O178  1  0.58533900  0.57856700  0.67245900  1
  O  O179  1  0.58533900  0.57856700  0.32754100  1
  O  O180  1  0.58204450  0.86724550  0.86208300  1
  O  O181  1  0.58204450  0.86724550  0.13791700  1
  O  O182  1  0.57139050  0.74711550  0.66055700  1
  O  O183  1  0.57139050  0.74711550  0.33944300  1
  O  O184  1  0.65946150  0.65676850  0.83675200  1
  O  O185  1  0.65946150  0.65676850  0.16324800  1
  O  O186  1  0.66339250  0.57573650  0.50000000  1
  O  O187  1  0.74286900  0.63054400  0.00000000  1
  O  O188  1  0.76240700  0.52205300  0.87701500  1
  O  O189  1  0.76240700  0.52205300  0.12298500  1
  O  O190  1  0.83254250  0.61511450  0.63022300  1
  O  O191  1  0.83254250  0.61511450  0.36977700  1
