# generated using pymatgen
data_LiFe4(BO3)4
_symmetry_space_group_name_H-M   'P 1'
_cell_length_a   5.22650428
_cell_length_b   9.15915541
_cell_length_c   11.36660150
_cell_angle_alpha   113.71577481
_cell_angle_beta   102.55106618
_cell_angle_gamma   90.86847399
_symmetry_Int_Tables_number   1
_chemical_formula_structural   LiFe4(BO3)4
_chemical_formula_sum   'Li2 Fe8 B8 O24'
_cell_volume   483.05545733
_cell_formula_units_Z   2
loop_
 _symmetry_equiv_pos_site_id
 _symmetry_equiv_pos_as_xyz
  1  'x, y, z'
loop_
 _atom_site_type_symbol
 _atom_site_label
 _atom_site_symmetry_multiplicity
 _atom_site_fract_x
 _atom_site_fract_y
 _atom_site_fract_z
 _atom_site_occupancy
  Li  Li0  1  0.71526946  0.27215628  0.10139157  1
  Li  Li1  1  0.51602740  0.50444934  0.34675500  1
  Fe  Fe2  1  0.98074165  0.35381298  0.62135459  1
  Fe  Fe3  1  0.74003018  0.92603079  0.12323451  1
  Fe  Fe4  1  0.51088997  0.14838998  0.37048473  1
  Fe  Fe5  1  0.76200569  0.56696170  0.87084960  1
  Fe  Fe6  1  0.23562287  0.44861265  0.11705647  1
  Fe  Fe7  1  0.47048132  0.85078114  0.62134980  1
  Fe  Fe8  1  0.03722890  0.66019874  0.37385946  1
  Fe  Fe9  1  0.26578294  0.06384011  0.87128272  1
  B  B10  1  0.96886337  0.68453378  0.62674266  1
  B  B11  1  0.73768736  0.60349760  0.12674483  1
  B  B12  1  0.53667535  0.81300747  0.37196781  1
  B  B13  1  0.76537548  0.89407413  0.87169022  1
  B  B14  1  0.47309023  0.18761280  0.61948850  1
  B  B15  1  0.23235568  0.10702947  0.11985582  1
  B  B16  1  0.01432589  0.31806770  0.37186727  1
  B  B17  1  0.26636448  0.39267428  0.87302862  1
  O  O18  1  0.97069963  0.09619492  0.11781808  1
  O  O19  1  0.89401491  0.71512769  0.15693895  1
  O  O20  1  0.83583252  0.50904289  0.07152989  1
  O  O21  1  0.84990314  0.21015221  0.34852457  1
  O  O22  1  0.93354628  0.42267578  0.42081624  1
  O  O23  1  0.75099201  0.84861069  0.31370652  1
  O  O24  1  0.73389630  0.66909432  0.67052093  1
  O  O25  1  0.50081239  0.58207459  0.15607349  1
  O  O26  1  0.38071736  0.20742467  0.17030926  1
  O  O27  1  0.53299896  0.07776008  0.56980344  1
  O  O28  1  0.62950798  0.30619711  0.61953375  1
  O  O29  1  0.36452707  0.02398948  0.06873065  1
  O  O30  1  0.63298313  0.97724261  0.92304803  1
  O  O31  1  0.41112965  0.68129592  0.38087891  1
  O  O32  1  0.46235422  0.91901217  0.42308694  1
  O  O33  1  0.62360573  0.78901351  0.82519860  1
  O  O34  1  0.53437631  0.39737859  0.89252436  1
  O  O35  1  0.26140212  0.33132031  0.34099979  1
  O  O36  1  0.24523173  0.17073864  0.66726867  1
  O  O37  1  0.03450739  0.57562600  0.58024781  1
  O  O38  1  0.12441081  0.80474761  0.62718905  1
  O  O39  1  0.12609541  0.48604005  0.91146450  1
  O  O40  1  0.13231481  0.28783156  0.82395872  1
  O  O41  1  0.01970894  0.91634770  0.86689470  1
