# generated using pymatgen
data_Li2V2P2(H4O5)3
_symmetry_space_group_name_H-M   'P 1'
_cell_length_a   22.39549600
_cell_length_b   5.06168800
_cell_length_c   10.51878867
_cell_angle_alpha   90.00000000
_cell_angle_beta   101.39248315
_cell_angle_gamma   90.00000000
_symmetry_Int_Tables_number   1
_chemical_formula_structural   Li2V2P2(H4O5)3
_chemical_formula_sum   'Li8 V8 P8 H48 O60'
_cell_volume   1168.90577388
_cell_formula_units_Z   4
loop_
 _symmetry_equiv_pos_site_id
 _symmetry_equiv_pos_as_xyz
  1  'x, y, z'
loop_
 _atom_site_type_symbol
 _atom_site_label
 _atom_site_symmetry_multiplicity
 _atom_site_fract_x
 _atom_site_fract_y
 _atom_site_fract_z
 _atom_site_occupancy
  Li  Li0  1  0.73878400  0.33919400  0.36427600  1
  Li  Li1  1  0.76121600  0.83919400  0.13572400  1
  Li  Li2  1  0.73878400  0.66080600  0.86427600  1
  Li  Li3  1  0.76121600  0.16080600  0.63572400  1
  Li  Li4  1  0.23878400  0.83919400  0.36427600  1
  Li  Li5  1  0.26121600  0.33919400  0.13572400  1
  Li  Li6  1  0.23878400  0.16080600  0.86427600  1
  Li  Li7  1  0.26121600  0.66080600  0.63572400  1
  V  V8  1  0.62490050  0.35694950  0.47146000  1
  V  V9  1  0.62490050  0.64305050  0.97146000  1
  V  V10  1  0.87509950  0.85694950  0.02854000  1
  V  V11  1  0.87509950  0.14305050  0.52854000  1
  V  V12  1  0.12490050  0.85694950  0.47146000  1
  V  V13  1  0.12490050  0.14305050  0.97146000  1
  V  V14  1  0.37509950  0.35694950  0.02854000  1
  V  V15  1  0.37509950  0.64305050  0.52854000  1
  P  P16  1  0.65777700  0.83409300  0.27407900  1
  P  P17  1  0.65777700  0.16590700  0.77407900  1
  P  P18  1  0.84222300  0.33409300  0.22592100  1
  P  P19  1  0.84222300  0.66590700  0.72592100  1
  P  P20  1  0.15777700  0.33409300  0.27407900  1
  P  P21  1  0.15777700  0.66590700  0.77407900  1
  P  P22  1  0.34222300  0.83409300  0.22592100  1
  P  P23  1  0.34222300  0.16590700  0.72592100  1
  H  H24  1  0.52230600  0.06340000  0.35280000  1
  H  H25  1  0.53836550  0.71753650  0.26788600  1
  H  H26  1  0.52230600  0.93660000  0.85280000  1
  H  H27  1  0.59285800  0.44479400  0.17505100  1
  H  H28  1  0.53836550  0.28246350  0.76788600  1
  H  H29  1  0.59285800  0.55520600  0.67505100  1
  H  H30  1  0.60290550  0.18458950  0.09481500  1
  H  H31  1  0.60290550  0.81541050  0.59481500  1
  H  H32  1  0.77838700  0.89979700  0.41606100  1
  H  H33  1  0.72161300  0.39979700  0.08393900  1
  H  H34  1  0.77838700  0.10020300  0.91606100  1
  H  H35  1  0.72161300  0.60020300  0.58393900  1
  H  H36  1  0.89709450  0.68458950  0.40518500  1
  H  H37  1  0.89709450  0.31541050  0.90518500  1
  H  H38  1  0.90714200  0.94479400  0.32494900  1
  H  H39  1  0.96163450  0.21753650  0.23211400  1
  H  H40  1  0.90714200  0.05520600  0.82494900  1
  H  H41  1  0.97769400  0.56340000  0.14720000  1
  H  H42  1  0.99877350  0.79219150  0.43423200  1
  H  H43  1  0.96163450  0.78246350  0.73211400  1
  H  H44  1  0.50122650  0.29219150  0.06576800  1
  H  H45  1  0.97769400  0.43660000  0.64720000  1
  H  H46  1  0.99877350  0.20780850  0.93423200  1
  H  H47  1  0.50122650  0.70780850  0.56576800  1
  H  H48  1  0.02230600  0.56340000  0.35280000  1
  H  H49  1  0.03836550  0.21753650  0.26788600  1
  H  H50  1  0.02230600  0.43660000  0.85280000  1
  H  H51  1  0.09285800  0.94479400  0.17505100  1
  H  H52  1  0.03836550  0.78246350  0.76788600  1
  H  H53  1  0.09285800  0.05520600  0.67505100  1
  H  H54  1  0.10290550  0.68458950  0.09481500  1
  H  H55  1  0.10290550  0.31541050  0.59481500  1
  H  H56  1  0.27838700  0.39979700  0.41606100  1
  H  H57  1  0.22161300  0.89979700  0.08393900  1
  H  H58  1  0.27838700  0.60020300  0.91606100  1
  H  H59  1  0.22161300  0.10020300  0.58393900  1
  H  H60  1  0.39709450  0.18458950  0.40518500  1
  H  H61  1  0.39709450  0.81541050  0.90518500  1
  H  H62  1  0.40714200  0.44479400  0.32494900  1
  H  H63  1  0.46163450  0.71753650  0.23211400  1
  H  H64  1  0.40714200  0.55520600  0.82494900  1
  H  H65  1  0.47769400  0.06340000  0.14720000  1
  H  H66  1  0.49877350  0.29219150  0.43423200  1
  H  H67  1  0.46163450  0.28246350  0.73211400  1
  H  H68  1  0.00122650  0.79219150  0.06576800  1
  H  H69  1  0.47769400  0.93660000  0.64720000  1
  H  H70  1  0.49877350  0.70780850  0.93423200  1
  H  H71  1  0.00122650  0.20780850  0.56576800  1
  O  O72  1  0.53576700  0.22405400  0.40779200  1
  O  O73  1  0.53576700  0.77594600  0.90779200  1
  O  O74  1  0.58421900  0.36947900  0.08455300  1
  O  O75  1  0.61170200  0.62366600  0.31398800  1
  O  O76  1  0.58421900  0.63052100  0.58455300  1
  O  O77  1  0.63137500  0.89814900  0.12633300  1
  O  O78  1  0.61170200  0.37633400  0.81398800  1
  O  O79  1  0.65678800  0.09298500  0.34947100  1
  O  O80  1  0.63137500  0.10185100  0.62633300  1
  O  O81  1  0.65678800  0.90701500  0.84947100  1
  O  O82  1  0.72171550  0.71716750  0.28934500  1
  O  O83  1  0.70715850  0.54244550  0.02448700  1
  O  O84  1  0.72171550  0.28283250  0.78934500  1
  O  O85  1  0.79284150  0.04244550  0.47551300  1
  O  O86  1  0.70715850  0.45755450  0.52448700  1
  O  O87  1  0.77828450  0.21716750  0.21065500  1
  O  O88  1  0.79284150  0.95755450  0.97551300  1
  O  O89  1  0.77828450  0.78283250  0.71065500  1
  O  O90  1  0.84321200  0.59298500  0.15052900  1
  O  O91  1  0.86862500  0.39814900  0.37366700  1
  O  O92  1  0.84321200  0.40701500  0.65052900  1
  O  O93  1  0.88829800  0.12366600  0.18601200  1
  O  O94  1  0.86862500  0.60185100  0.87366700  1
  O  O95  1  0.91578100  0.86947900  0.41544700  1
  O  O96  1  0.88829800  0.87633400  0.68601200  1
  O  O97  1  0.91578100  0.13052100  0.91544700  1
  O  O98  1  0.96423300  0.72405400  0.09220800  1
  O  O99  1  0.00000000  0.32900800  0.25000000  1
  O  O100  1  0.96423300  0.27594600  0.59220800  1
  O  O101  1  0.00000000  0.67099200  0.75000000  1
  O  O102  1  0.03576700  0.72405400  0.40779200  1
  O  O103  1  0.03576700  0.27594600  0.90779200  1
  O  O104  1  0.08421900  0.86947900  0.08455300  1
  O  O105  1  0.11170200  0.12366600  0.31398800  1
  O  O106  1  0.08421900  0.13052100  0.58455300  1
  O  O107  1  0.13137500  0.39814900  0.12633300  1
  O  O108  1  0.11170200  0.87633400  0.81398800  1
  O  O109  1  0.15678800  0.59298500  0.34947100  1
  O  O110  1  0.13137500  0.60185100  0.62633300  1
  O  O111  1  0.15678800  0.40701500  0.84947100  1
  O  O112  1  0.22171550  0.21716750  0.28934500  1
  O  O113  1  0.20715850  0.04244550  0.02448700  1
  O  O114  1  0.22171550  0.78283250  0.78934500  1
  O  O115  1  0.29284150  0.54244550  0.47551300  1
  O  O116  1  0.20715850  0.95755450  0.52448700  1
  O  O117  1  0.27828450  0.71716750  0.21065500  1
  O  O118  1  0.29284150  0.45755450  0.97551300  1
  O  O119  1  0.27828450  0.28283250  0.71065500  1
  O  O120  1  0.34321200  0.09298500  0.15052900  1
  O  O121  1  0.36862500  0.89814900  0.37366700  1
  O  O122  1  0.34321200  0.90701500  0.65052900  1
  O  O123  1  0.38829800  0.62366600  0.18601200  1
  O  O124  1  0.36862500  0.10185100  0.87366700  1
  O  O125  1  0.41578100  0.36947900  0.41544700  1
  O  O126  1  0.38829800  0.37633400  0.68601200  1
  O  O127  1  0.41578100  0.63052100  0.91544700  1
  O  O128  1  0.46423300  0.22405400  0.09220800  1
  O  O129  1  0.50000000  0.82900800  0.25000000  1
  O  O130  1  0.46423300  0.77594600  0.59220800  1
  O  O131  1  0.50000000  0.17099200  0.75000000  1
