# generated using pymatgen
data_Zr5Ti7O24
_symmetry_space_group_name_H-M   'P 1'
_cell_length_a   4.81217200
_cell_length_b   5.65111100
_cell_length_c   15.21061459
_cell_angle_alpha   90.00000000
_cell_angle_beta   91.56690223
_cell_angle_gamma   90.00000000
_symmetry_Int_Tables_number   1
_chemical_formula_structural   Zr5Ti7O24
_chemical_formula_sum   'Zr5 Ti7 O24'
_cell_volume   413.48458089
_cell_formula_units_Z   1
loop_
 _symmetry_equiv_pos_site_id
 _symmetry_equiv_pos_as_xyz
  1  'x, y, z'
loop_
 _atom_site_type_symbol
 _atom_site_label
 _atom_site_symmetry_multiplicity
 _atom_site_fract_x
 _atom_site_fract_y
 _atom_site_fract_z
 _atom_site_occupancy
  Zr  Zr0  1  0.00000000  0.18605700  0.00000000  1
  Zr  Zr1  1  0.00000000  0.79459100  0.50000000  1
  Zr  Zr2  1  0.98889900  0.19648400  0.66593700  1
  Zr  Zr3  1  0.01110100  0.19648400  0.33406300  1
  Zr  Zr4  1  0.50000000  0.68946300  0.00000000  1
  Ti  Ti5  1  0.01162700  0.81080900  0.17027300  1
  Ti  Ti6  1  0.98837300  0.81080900  0.82972700  1
  Ti  Ti7  1  0.48742800  0.67743100  0.67022200  1
  Ti  Ti8  1  0.51257200  0.67743100  0.32977800  1
  Ti  Ti9  1  0.48862600  0.31389300  0.83311200  1
  Ti  Ti10  1  0.51137400  0.31389300  0.16688800  1
  Ti  Ti11  1  0.50000000  0.32861100  0.50000000  1
  O  O12  1  0.24181900  0.11186700  0.44932500  1
  O  O13  1  0.19981300  0.88661500  0.93670800  1
  O  O14  1  0.25962500  0.10595400  0.11217700  1
  O  O15  1  0.21270500  0.11749900  0.78248100  1
  O  O16  1  0.22891100  0.88922700  0.61597100  1
  O  O17  1  0.24141400  0.87743500  0.27702800  1
  O  O18  1  0.28653100  0.39087500  0.93821000  1
  O  O19  1  0.24727800  0.61656100  0.77364200  1
  O  O20  1  0.28903100  0.60412100  0.43264900  1
  O  O21  1  0.26084900  0.60904600  0.11323300  1
  O  O22  1  0.26054200  0.40842500  0.59959300  1
  O  O23  1  0.31845200  0.38439500  0.27331600  1
  O  O24  1  0.75272200  0.61656100  0.22635800  1
  O  O25  1  0.71346900  0.39087500  0.06179000  1
  O  O26  1  0.73915100  0.60904600  0.88676700  1
  O  O27  1  0.71096900  0.60412100  0.56735100  1
  O  O28  1  0.68154800  0.38439500  0.72668400  1
  O  O29  1  0.73945800  0.40842500  0.40040700  1
  O  O30  1  0.80018700  0.88661500  0.06329200  1
  O  O31  1  0.75858600  0.87743500  0.72297200  1
  O  O32  1  0.78729500  0.11749900  0.21751900  1
  O  O33  1  0.74037500  0.10595400  0.88782300  1
  O  O34  1  0.75818100  0.11186700  0.55067500  1
  O  O35  1  0.77108900  0.88922700  0.38402900  1
