# generated using pymatgen
data_AgIO3
_symmetry_space_group_name_H-M   'P 1'
_cell_length_a   5.91506400
_cell_length_b   6.64581700
_cell_length_c   8.44508400
_cell_angle_alpha   90.00000000
_cell_angle_beta   90.00000000
_cell_angle_gamma   90.00000000
_symmetry_Int_Tables_number   1
_chemical_formula_structural   AgIO3
_chemical_formula_sum   'Ag4 I4 O12'
_cell_volume   331.97990781
_cell_formula_units_Z   4
loop_
 _symmetry_equiv_pos_site_id
 _symmetry_equiv_pos_as_xyz
  1  'x, y, z'
loop_
 _atom_site_type_symbol
 _atom_site_label
 _atom_site_symmetry_multiplicity
 _atom_site_fract_x
 _atom_site_fract_y
 _atom_site_fract_z
 _atom_site_occupancy
  Ag  Ag0  1  0.00000000  0.50000000  0.00000000  1
  Ag  Ag1  1  0.00000000  0.50000000  0.50000000  1
  Ag  Ag2  1  0.50000000  0.00000000  0.00000000  1
  Ag  Ag3  1  0.50000000  0.00000000  0.50000000  1
  I  I4  1  0.01213900  0.01819900  0.25000000  1
  I  I5  1  0.48786100  0.51819900  0.25000000  1
  I  I6  1  0.51213900  0.48180100  0.75000000  1
  I  I7  1  0.98786100  0.98180100  0.75000000  1
  O  O8  1  0.13291700  0.16671900  0.08551400  1
  O  O9  1  0.13291700  0.16671900  0.41448600  1
  O  O10  1  0.21500300  0.39827300  0.75000000  1
  O  O11  1  0.28499700  0.89827300  0.75000000  1
  O  O12  1  0.36708300  0.66671900  0.08551400  1
  O  O13  1  0.36708300  0.66671900  0.41448600  1
  O  O14  1  0.63291700  0.33328100  0.91448600  1
  O  O15  1  0.63291700  0.33328100  0.58551400  1
  O  O16  1  0.71500300  0.10172700  0.25000000  1
  O  O17  1  0.78499700  0.60172700  0.25000000  1
  O  O18  1  0.86708300  0.83328100  0.58551400  1
  O  O19  1  0.86708300  0.83328100  0.91448600  1
