# generated using pymatgen
data_SbH4NCl6
_symmetry_space_group_name_H-M   'P 1'
_cell_length_a   12.33740200
_cell_length_b   6.45391600
_cell_length_c   12.32508883
_cell_angle_alpha   90.00000000
_cell_angle_beta   101.75808787
_cell_angle_gamma   90.00000000
_symmetry_Int_Tables_number   1
_chemical_formula_structural   SbH4NCl6
_chemical_formula_sum   'Sb4 H16 N4 Cl24'
_cell_volume   960.78715899
_cell_formula_units_Z   4
loop_
 _symmetry_equiv_pos_site_id
 _symmetry_equiv_pos_as_xyz
  1  'x, y, z'
loop_
 _atom_site_type_symbol
 _atom_site_label
 _atom_site_symmetry_multiplicity
 _atom_site_fract_x
 _atom_site_fract_y
 _atom_site_fract_z
 _atom_site_occupancy
  Sb  Sb0  1  0.75000000  0.75000000  0.00000000  1
  Sb  Sb1  1  0.75000000  0.25000000  0.50000000  1
  Sb  Sb2  1  0.25000000  0.25000000  0.00000000  1
  Sb  Sb3  1  0.25000000  0.75000000  0.50000000  1
  H  H4  1  0.99792100  0.98270700  0.68109000  1
  H  H5  1  0.93021250  0.79835050  0.73839500  1
  H  H6  1  0.99792100  0.01729300  0.18109000  1
  H  H7  1  0.93021250  0.20164950  0.23839500  1
  H  H8  1  0.56978750  0.29835050  0.76160500  1
  H  H9  1  0.50207900  0.48270700  0.81891000  1
  H  H10  1  0.56978750  0.70164950  0.26160500  1
  H  H11  1  0.50207900  0.51729300  0.31891000  1
  H  H12  1  0.49792100  0.48270700  0.68109000  1
  H  H13  1  0.43021250  0.29835050  0.73839500  1
  H  H14  1  0.49792100  0.51729300  0.18109000  1
  H  H15  1  0.43021250  0.70164950  0.23839500  1
  H  H16  1  0.06978750  0.79835050  0.76160500  1
  H  H17  1  0.00207900  0.98270700  0.81891000  1
  H  H18  1  0.06978750  0.20164950  0.26160500  1
  H  H19  1  0.00207900  0.01729300  0.31891000  1
  N  N20  1  0.00000000  0.89142400  0.75000000  1
  N  N21  1  0.00000000  0.10857600  0.25000000  1
  N  N22  1  0.50000000  0.39142400  0.75000000  1
  N  N23  1  0.50000000  0.60857600  0.25000000  1
  Cl  Cl24  1  0.92027400  0.38674900  0.61023600  1
  Cl  Cl25  1  0.92027400  0.61325100  0.11023600  1
  Cl  Cl26  1  0.84979350  0.05613550  0.96561400  1
  Cl  Cl27  1  0.78841600  0.58698400  0.83547300  1
  Cl  Cl28  1  0.71158400  0.08698400  0.66452700  1
  Cl  Cl29  1  0.84979350  0.94386450  0.46561400  1
  Cl  Cl30  1  0.65020650  0.55613550  0.53438600  1
  Cl  Cl31  1  0.78841600  0.41301600  0.33547300  1
  Cl  Cl32  1  0.71158400  0.91301600  0.16452700  1
  Cl  Cl33  1  0.65020650  0.44386450  0.03438600  1
  Cl  Cl34  1  0.57972600  0.88674900  0.88976400  1
  Cl  Cl35  1  0.57972600  0.11325100  0.38976400  1
  Cl  Cl36  1  0.42027400  0.88674900  0.61023600  1
  Cl  Cl37  1  0.42027400  0.11325100  0.11023600  1
  Cl  Cl38  1  0.34979350  0.55613550  0.96561400  1
  Cl  Cl39  1  0.28841600  0.08698400  0.83547300  1
  Cl  Cl40  1  0.21158400  0.58698400  0.66452700  1
  Cl  Cl41  1  0.34979350  0.44386450  0.46561400  1
  Cl  Cl42  1  0.15020650  0.05613550  0.53438600  1
  Cl  Cl43  1  0.28841600  0.91301600  0.33547300  1
  Cl  Cl44  1  0.21158400  0.41301600  0.16452700  1
  Cl  Cl45  1  0.15020650  0.94386450  0.03438600  1
  Cl  Cl46  1  0.07972600  0.38674900  0.88976400  1
  Cl  Cl47  1  0.07972600  0.61325100  0.38976400  1
