# generated using pymatgen
data_Li2FeO2F
_symmetry_space_group_name_H-M   'P 1'
_cell_length_a   5.32860585
_cell_length_b   8.72947200
_cell_length_c   5.23238338
_cell_angle_alpha   90.00000000
_cell_angle_beta   113.60764336
_cell_angle_gamma   90.00000000
_symmetry_Int_Tables_number   1
_chemical_formula_structural   Li2FeO2F
_chemical_formula_sum   'Li8 Fe4 O8 F4'
_cell_volume   223.01970218
_cell_formula_units_Z   4
loop_
 _symmetry_equiv_pos_site_id
 _symmetry_equiv_pos_as_xyz
  1  'x, y, z'
loop_
 _atom_site_type_symbol
 _atom_site_label
 _atom_site_symmetry_multiplicity
 _atom_site_fract_x
 _atom_site_fract_y
 _atom_site_fract_z
 _atom_site_occupancy
  Li  Li0  1  0.49341100  0.24892300  0.25585200  1
  Li  Li1  1  0.49341100  0.75107700  0.75585200  1
  Li  Li2  1  0.52414600  0.91669800  0.22269200  1
  Li  Li3  1  0.52414600  0.08330200  0.72269200  1
  Li  Li4  1  0.99341100  0.74892300  0.25585200  1
  Li  Li5  1  0.99341100  0.25107700  0.75585200  1
  Li  Li6  1  0.02414600  0.41669800  0.22269200  1
  Li  Li7  1  0.02414600  0.58330200  0.72269200  1
  Fe  Fe8  1  0.46468650  0.39809550  0.75385400  1
  Fe  Fe9  1  0.46468650  0.60190450  0.25385400  1
  Fe  Fe10  1  0.96468650  0.89809550  0.75385400  1
  Fe  Fe11  1  0.96468650  0.10190450  0.25385400  1
  O  O12  1  0.77835450  0.07288150  0.50016300  1
  O  O13  1  0.77835450  0.92711850  0.00016300  1
  O  O14  1  0.24797400  0.75645900  0.99550500  1
  O  O15  1  0.24797400  0.24354100  0.49550500  1
  O  O16  1  0.27835450  0.57288150  0.50016300  1
  O  O17  1  0.27835450  0.42711850  0.00016300  1
  O  O18  1  0.74797400  0.25645900  0.99550500  1
  O  O19  1  0.74797400  0.74354100  0.49550500  1
  F  F20  1  0.24141050  0.08213250  0.02193700  1
  F  F21  1  0.24141050  0.91786750  0.52193700  1
  F  F22  1  0.74141050  0.58213250  0.02193700  1
  F  F23  1  0.74141050  0.41786750  0.52193700  1
