# generated using pymatgen
data_As3Rh
_symmetry_space_group_name_H-M   'P 1'
_cell_length_a   8.58357200
_cell_length_b   8.58357200
_cell_length_c   8.58357200
_cell_angle_alpha   90.00000000
_cell_angle_beta   90.00000000
_cell_angle_gamma   90.00000000
_symmetry_Int_Tables_number   1
_chemical_formula_structural   As3Rh
_chemical_formula_sum   'As24 Rh8'
_cell_volume   632.41791381
_cell_formula_units_Z   8
loop_
 _symmetry_equiv_pos_site_id
 _symmetry_equiv_pos_as_xyz
  1  'x, y, z'
loop_
 _atom_site_type_symbol
 _atom_site_label
 _atom_site_symmetry_multiplicity
 _atom_site_fract_x
 _atom_site_fract_y
 _atom_site_fract_z
 _atom_site_occupancy
  As  As0  1  0.15157400  0.35345200  0.50000000  1
  As  As1  1  0.84842600  0.35345200  0.50000000  1
  As  As2  1  0.65157400  0.14654800  0.00000000  1
  As  As3  1  0.14654800  0.00000000  0.34842600  1
  As  As4  1  0.34842600  0.14654800  0.00000000  1
  As  As5  1  0.14654800  0.00000000  0.65157400  1
  As  As6  1  0.50000000  0.84842600  0.35345200  1
  As  As7  1  0.35345200  0.50000000  0.15157400  1
  As  As8  1  0.00000000  0.65157400  0.14654800  1
  As  As9  1  0.35345200  0.50000000  0.84842600  1
  As  As10  1  0.50000000  0.15157400  0.35345200  1
  As  As11  1  0.00000000  0.34842600  0.14654800  1
  As  As12  1  0.65157400  0.85345200  0.00000000  1
  As  As13  1  0.34842600  0.85345200  0.00000000  1
  As  As14  1  0.15157400  0.64654800  0.50000000  1
  As  As15  1  0.64654800  0.50000000  0.84842600  1
  As  As16  1  0.84842600  0.64654800  0.50000000  1
  As  As17  1  0.64654800  0.50000000  0.15157400  1
  As  As18  1  0.00000000  0.34842600  0.85345200  1
  As  As19  1  0.85345200  0.00000000  0.65157400  1
  As  As20  1  0.50000000  0.15157400  0.64654800  1
  As  As21  1  0.85345200  0.00000000  0.34842600  1
  As  As22  1  0.00000000  0.65157400  0.85345200  1
  As  As23  1  0.50000000  0.84842600  0.64654800  1
  Rh  Rh24  1  0.25000000  0.25000000  0.75000000  1
  Rh  Rh25  1  0.25000000  0.75000000  0.25000000  1
  Rh  Rh26  1  0.75000000  0.25000000  0.25000000  1
  Rh  Rh27  1  0.25000000  0.25000000  0.25000000  1
  Rh  Rh28  1  0.75000000  0.75000000  0.25000000  1
  Rh  Rh29  1  0.75000000  0.25000000  0.75000000  1
  Rh  Rh30  1  0.25000000  0.75000000  0.75000000  1
  Rh  Rh31  1  0.75000000  0.75000000  0.75000000  1
