# generated using pymatgen
data_BaTiF6
_symmetry_space_group_name_H-M   'P 1'
_cell_length_a   7.53528015
_cell_length_b   7.53528015
_cell_length_c   7.35429371
_cell_angle_alpha   90.00000000
_cell_angle_beta   90.00000000
_cell_angle_gamma   120.00000000
_symmetry_Int_Tables_number   1
_chemical_formula_structural   BaTiF6
_chemical_formula_sum   'Ba3 Ti3 F18'
_cell_volume   361.63496091
_cell_formula_units_Z   3
loop_
 _symmetry_equiv_pos_site_id
 _symmetry_equiv_pos_as_xyz
  1  'x, y, z'
loop_
 _atom_site_type_symbol
 _atom_site_label
 _atom_site_symmetry_multiplicity
 _atom_site_fract_x
 _atom_site_fract_y
 _atom_site_fract_z
 _atom_site_occupancy
  Ba  Ba0  1  0.00000000  0.00000000  0.00000000  1
  Ba  Ba1  1  0.66666667  0.33333333  0.33333333  1
  Ba  Ba2  1  0.33333333  0.66666667  0.66666667  1
  Ti  Ti3  1  0.00000000  0.00000000  0.50000000  1
  Ti  Ti4  1  0.66666667  0.33333333  0.83333333  1
  Ti  Ti5  1  0.33333333  0.66666667  0.16666667  1
  F  F6  1  0.76853467  0.88426733  0.65503433  1
  F  F7  1  0.11573267  0.88426733  0.65503433  1
  F  F8  1  0.23146533  0.11573267  0.34496567  1
  F  F9  1  0.88426733  0.76853467  0.34496567  1
  F  F10  1  0.88426733  0.11573267  0.34496567  1
  F  F11  1  0.11573267  0.23146533  0.65503433  1
  F  F12  1  0.43520133  0.21760067  0.98836767  1
  F  F13  1  0.78239933  0.21760067  0.98836767  1
  F  F14  1  0.89813200  0.44906600  0.67829900  1
  F  F15  1  0.55093400  0.10186800  0.67829900  1
  F  F16  1  0.55093400  0.44906600  0.67829900  1
  F  F17  1  0.78239933  0.56479867  0.98836767  1
  F  F18  1  0.10186800  0.55093400  0.32170100  1
  F  F19  1  0.44906600  0.55093400  0.32170100  1
  F  F20  1  0.56479867  0.78239933  0.01163233  1
  F  F21  1  0.21760067  0.43520133  0.01163233  1
  F  F22  1  0.21760067  0.78239933  0.01163233  1
  F  F23  1  0.44906600  0.89813200  0.32170100  1
