# generated using pymatgen
data_NaGeSbO5
_symmetry_space_group_name_H-M   'P 1'
_cell_length_a   6.50100200
_cell_length_b   10.88316300
_cell_length_c   13.20293100
_cell_angle_alpha   90.00000000
_cell_angle_beta   90.00000000
_cell_angle_gamma   90.00000000
_symmetry_Int_Tables_number   1
_chemical_formula_structural   NaGeSbO5
_chemical_formula_sum   'Na8 Ge8 Sb8 O40'
_cell_volume   934.12670301
_cell_formula_units_Z   8
loop_
 _symmetry_equiv_pos_site_id
 _symmetry_equiv_pos_as_xyz
  1  'x, y, z'
loop_
 _atom_site_type_symbol
 _atom_site_label
 _atom_site_symmetry_multiplicity
 _atom_site_fract_x
 _atom_site_fract_y
 _atom_site_fract_z
 _atom_site_occupancy
  Na  Na0  1  0.79995600  0.73273900  0.34131800  1
  Na  Na1  1  0.27125600  0.41243100  0.89974600  1
  Na  Na2  1  0.22874400  0.41243100  0.39974600  1
  Na  Na3  1  0.72874400  0.91243100  0.10025400  1
  Na  Na4  1  0.29995600  0.23273900  0.15868200  1
  Na  Na5  1  0.70004400  0.73273900  0.84131800  1
  Na  Na6  1  0.20004400  0.23273900  0.65868200  1
  Na  Na7  1  0.77125600  0.91243100  0.60025400  1
  Ge  Ge8  1  0.68495500  0.24468300  0.51813400  1
  Ge  Ge9  1  0.18495500  0.74468300  0.98186600  1
  Ge  Ge10  1  0.81504500  0.24468300  0.01813400  1
  Ge  Ge11  1  0.53967500  0.51068100  0.18724700  1
  Ge  Ge12  1  0.46032500  0.01068100  0.81275300  1
  Ge  Ge13  1  0.96032500  0.51068100  0.68724700  1
  Ge  Ge14  1  0.31504500  0.74468300  0.48186600  1
  Ge  Ge15  1  0.03967500  0.01068100  0.31275300  1
  Sb  Sb16  1  0.27868700  0.77286700  0.22679400  1
  Sb  Sb17  1  0.72131300  0.27286700  0.77320600  1
  Sb  Sb18  1  0.22131300  0.77286700  0.72679400  1
  Sb  Sb19  1  0.53311300  0.99976500  0.38457200  1
  Sb  Sb20  1  0.46688700  0.49976500  0.61542800  1
  Sb  Sb21  1  0.96688700  0.99976500  0.88457200  1
  Sb  Sb22  1  0.03311300  0.49976500  0.11542800  1
  Sb  Sb23  1  0.77868700  0.27286700  0.27320600  1
  O  O24  1  0.94555400  0.15249300  0.80300900  1
  O  O25  1  0.05444600  0.65249300  0.19699100  1
  O  O26  1  0.55444600  0.15249300  0.30300900  1
  O  O27  1  0.44555400  0.65249300  0.69699100  1
  O  O28  1  0.49766100  0.89848200  0.25740400  1
  O  O29  1  0.50233900  0.39848200  0.74259600  1
  O  O30  1  0.00233900  0.89848200  0.75740400  1
  O  O31  1  0.99766100  0.39848200  0.24259600  1
  O  O32  1  0.49778300  0.15059500  0.74651500  1
  O  O33  1  0.50221700  0.65059500  0.25348500  1
  O  O34  1  0.00221700  0.15059500  0.24651500  1
  O  O35  1  0.99778300  0.65059500  0.75348500  1
  O  O36  1  0.06801800  0.90551200  0.21035900  1
  O  O37  1  0.93198200  0.40551200  0.78964100  1
  O  O38  1  0.43198200  0.90551200  0.71035900  1
  O  O39  1  0.13892500  0.78299600  0.58040100  1
  O  O40  1  0.56801800  0.40551200  0.28964100  1
  O  O41  1  0.73530000  0.52831800  0.09594200  1
  O  O42  1  0.23530000  0.02831800  0.40405800  1
  O  O43  1  0.76470000  0.52831800  0.59594200  1
  O  O44  1  0.83093500  0.95512200  0.38393800  1
  O  O45  1  0.16906500  0.45512200  0.61606200  1
  O  O46  1  0.66906500  0.95512200  0.88393800  1
  O  O47  1  0.33093500  0.45512200  0.11606200  1
  O  O48  1  0.53194200  0.84370300  0.47127900  1
  O  O49  1  0.46805800  0.34370300  0.52872100  1
  O  O50  1  0.96805800  0.84370300  0.97127900  1
  O  O51  1  0.03194200  0.34370300  0.02872100  1
  O  O52  1  0.90780500  0.09084000  0.01372300  1
  O  O53  1  0.09219500  0.59084000  0.98627700  1
  O  O54  1  0.59219500  0.09084000  0.51372300  1
  O  O55  1  0.40780500  0.59084000  0.48627700  1
  O  O56  1  0.16759600  0.75519200  0.36966500  1
  O  O57  1  0.83240400  0.25519200  0.63033500  1
  O  O58  1  0.33240400  0.75519200  0.86966500  1
  O  O59  1  0.66759600  0.25519200  0.13033500  1
  O  O60  1  0.63892500  0.28299600  0.91959900  1
  O  O61  1  0.36107500  0.78299600  0.08040100  1
  O  O62  1  0.86107500  0.28299600  0.41959900  1
  O  O63  1  0.26470000  0.02831800  0.90405800  1
