# generated using pymatgen
data_Rb2HgF4
_symmetry_space_group_name_H-M   'P 1'
_cell_length_a   4.68603600
_cell_length_b   4.68603600
_cell_length_c   13.93589800
_cell_angle_alpha   90.00000000
_cell_angle_beta   90.00000000
_cell_angle_gamma   90.00000000
_symmetry_Int_Tables_number   1
_chemical_formula_structural   Rb2HgF4
_chemical_formula_sum   'Rb4 Hg2 F8'
_cell_volume   306.01745596
_cell_formula_units_Z   2
loop_
 _symmetry_equiv_pos_site_id
 _symmetry_equiv_pos_as_xyz
  1  'x, y, z'
loop_
 _atom_site_type_symbol
 _atom_site_label
 _atom_site_symmetry_multiplicity
 _atom_site_fract_x
 _atom_site_fract_y
 _atom_site_fract_z
 _atom_site_occupancy
  Rb  Rb0  1  0.00000000  0.00000000  0.35871700  1
  Rb  Rb1  1  0.50000000  0.50000000  0.14128300  1
  Rb  Rb2  1  0.50000000  0.50000000  0.85871700  1
  Rb  Rb3  1  0.00000000  0.00000000  0.64128300  1
  Hg  Hg4  1  0.00000000  0.00000000  0.00000000  1
  Hg  Hg5  1  0.50000000  0.50000000  0.50000000  1
  F  F6  1  0.00000000  0.00000000  0.16323800  1
  F  F7  1  0.50000000  0.50000000  0.33676200  1
  F  F8  1  0.50000000  0.00000000  0.00000000  1
  F  F9  1  0.00000000  0.50000000  0.00000000  1
  F  F10  1  0.50000000  0.50000000  0.66323800  1
  F  F11  1  0.00000000  0.00000000  0.83676200  1
  F  F12  1  0.00000000  0.50000000  0.50000000  1
  F  F13  1  0.50000000  0.00000000  0.50000000  1
