# generated using pymatgen
data_LiCoO2
_symmetry_space_group_name_H-M   'P 1'
_cell_length_a   5.78803339
_cell_length_b   5.81485314
_cell_length_c   8.23817068
_cell_angle_alpha   90.00000000
_cell_angle_beta   90.00000000
_cell_angle_gamma   90.00000000
_symmetry_Int_Tables_number   1
_chemical_formula_structural   LiCoO2
_chemical_formula_sum   'Li8 Co8 O16'
_cell_volume   277.26851994
_cell_formula_units_Z   8
loop_
 _symmetry_equiv_pos_site_id
 _symmetry_equiv_pos_as_xyz
  1  'x, y, z'
loop_
 _atom_site_type_symbol
 _atom_site_label
 _atom_site_symmetry_multiplicity
 _atom_site_fract_x
 _atom_site_fract_y
 _atom_site_fract_z
 _atom_site_occupancy
  Li  Li0  1  0.75000000  0.75000000  0.25000000  1
  Li  Li1  1  0.25000000  0.75000000  0.25000000  1
  Li  Li2  1  0.00000000  0.00000000  0.00000000  1
  Li  Li3  1  0.50000000  0.00000000  0.50000000  1
  Li  Li4  1  0.25000000  0.25000000  0.75000000  1
  Li  Li5  1  0.75000000  0.25000000  0.75000000  1
  Li  Li6  1  0.50000000  0.50000000  0.50000000  1
  Li  Li7  1  0.00000000  0.50000000  0.00000000  1
  Co  Co8  1  0.75000000  0.25000000  0.25000000  1
  Co  Co9  1  0.50000000  0.00000000  0.00000000  1
  Co  Co10  1  0.00000000  0.00000000  0.50000000  1
  Co  Co11  1  0.25000000  0.25000000  0.25000000  1
  Co  Co12  1  0.25000000  0.75000000  0.75000000  1
  Co  Co13  1  0.00000000  0.50000000  0.50000000  1
  Co  Co14  1  0.50000000  0.50000000  0.00000000  1
  Co  Co15  1  0.75000000  0.75000000  0.75000000  1
  O  O16  1  0.00000000  0.97725717  0.74670073  1
  O  O17  1  0.23817077  0.75000000  0.51230594  1
  O  O18  1  0.50000000  0.02274283  0.24670073  1
  O  O19  1  0.76182923  0.75000000  0.51230594  1
  O  O20  1  0.23817077  0.25000000  0.48769406  1
  O  O21  1  0.50000000  0.97725717  0.75329927  1
  O  O22  1  0.76182923  0.25000000  0.48769406  1
  O  O23  1  0.00000000  0.02274283  0.25329927  1
  O  O24  1  0.50000000  0.47725717  0.24670073  1
  O  O25  1  0.73817077  0.25000000  0.01230594  1
  O  O26  1  0.00000000  0.52274283  0.74670073  1
  O  O27  1  0.26182923  0.25000000  0.01230594  1
  O  O28  1  0.73817077  0.75000000  0.98769406  1
  O  O29  1  0.00000000  0.47725717  0.25329927  1
  O  O30  1  0.26182923  0.75000000  0.98769406  1
  O  O31  1  0.50000000  0.52274283  0.75329927  1
