# generated using pymatgen
data_Rb4Zr6CCl18
_symmetry_space_group_name_H-M   'P 1'
_cell_length_a   10.71877400
_cell_length_b   17.66859200
_cell_length_c   10.01703386
_cell_angle_alpha   90.00000000
_cell_angle_beta   115.12893848
_cell_angle_gamma   90.00000000
_symmetry_Int_Tables_number   1
_chemical_formula_structural   Rb4Zr6CCl18
_chemical_formula_sum   'Rb8 Zr12 C2 Cl36'
_cell_volume   1717.53197128
_cell_formula_units_Z   2
loop_
 _symmetry_equiv_pos_site_id
 _symmetry_equiv_pos_as_xyz
  1  'x, y, z'
loop_
 _atom_site_type_symbol
 _atom_site_label
 _atom_site_symmetry_multiplicity
 _atom_site_fract_x
 _atom_site_fract_y
 _atom_site_fract_z
 _atom_site_occupancy
  Rb  Rb0  1  0.39205750  0.83808550  0.68195800  1
  Rb  Rb1  1  0.60794250  0.83808550  0.31804200  1
  Rb  Rb2  1  0.60794250  0.16191450  0.31804200  1
  Rb  Rb3  1  0.39205750  0.16191450  0.68195800  1
  Rb  Rb4  1  0.89205750  0.33808550  0.68195800  1
  Rb  Rb5  1  0.10794250  0.33808550  0.31804200  1
  Rb  Rb6  1  0.10794250  0.66191450  0.31804200  1
  Rb  Rb7  1  0.89205750  0.66191450  0.68195800  1
  Zr  Zr8  1  0.87819100  0.00000000  0.14330400  1
  Zr  Zr9  1  0.12180900  0.00000000  0.85669600  1
  Zr  Zr10  1  0.14381800  0.90804200  0.14890300  1
  Zr  Zr11  1  0.85618200  0.90804200  0.85109700  1
  Zr  Zr12  1  0.85618200  0.09195800  0.85109700  1
  Zr  Zr13  1  0.14381800  0.09195800  0.14890300  1
  Zr  Zr14  1  0.37819100  0.50000000  0.14330400  1
  Zr  Zr15  1  0.62180900  0.50000000  0.85669600  1
  Zr  Zr16  1  0.64381800  0.40804200  0.14890300  1
  Zr  Zr17  1  0.35618200  0.40804200  0.85109700  1
  Zr  Zr18  1  0.35618200  0.59195800  0.85109700  1
  Zr  Zr19  1  0.64381800  0.59195800  0.14890300  1
  C  C20  1  0.00000000  0.00000000  0.00000000  1
  C  C21  1  0.50000000  0.50000000  0.00000000  1
  Cl  Cl22  1  0.29475650  0.89757750  0.00792200  1
  Cl  Cl23  1  0.70524350  0.89757750  0.99207800  1
  Cl  Cl24  1  0.70524350  0.10242250  0.99207800  1
  Cl  Cl25  1  0.29475650  0.10242250  0.00792200  1
  Cl  Cl26  1  0.50000000  0.29548900  0.00000000  1
  Cl  Cl27  1  0.50000000  0.70451100  0.00000000  1
  Cl  Cl28  1  0.68010700  0.00000000  0.67269500  1
  Cl  Cl29  1  0.31989300  0.00000000  0.32730500  1
  Cl  Cl30  1  0.30920000  0.80273700  0.32401600  1
  Cl  Cl31  1  0.69080000  0.80273700  0.67598400  1
  Cl  Cl32  1  0.69080000  0.19726300  0.67598400  1
  Cl  Cl33  1  0.30920000  0.19726300  0.32401600  1
  Cl  Cl34  1  0.73777000  0.00000000  0.30116000  1
  Cl  Cl35  1  0.26223000  0.00000000  0.69884000  1
  Cl  Cl36  1  0.52451300  0.39766700  0.31998000  1
  Cl  Cl37  1  0.47548700  0.39766700  0.68002000  1
  Cl  Cl38  1  0.47548700  0.60233300  0.68002000  1
  Cl  Cl39  1  0.52451300  0.60233300  0.31998000  1
  Cl  Cl40  1  0.79475650  0.39757750  0.00792200  1
  Cl  Cl41  1  0.20524350  0.39757750  0.99207800  1
  Cl  Cl42  1  0.20524350  0.60242250  0.99207800  1
  Cl  Cl43  1  0.79475650  0.60242250  0.00792200  1
  Cl  Cl44  1  0.00000000  0.79548900  0.00000000  1
  Cl  Cl45  1  0.00000000  0.20451100  0.00000000  1
  Cl  Cl46  1  0.18010700  0.50000000  0.67269500  1
  Cl  Cl47  1  0.81989300  0.50000000  0.32730500  1
  Cl  Cl48  1  0.80920000  0.30273700  0.32401600  1
  Cl  Cl49  1  0.19080000  0.30273700  0.67598400  1
  Cl  Cl50  1  0.19080000  0.69726300  0.67598400  1
  Cl  Cl51  1  0.80920000  0.69726300  0.32401600  1
  Cl  Cl52  1  0.23777000  0.50000000  0.30116000  1
  Cl  Cl53  1  0.76223000  0.50000000  0.69884000  1
  Cl  Cl54  1  0.02451300  0.89766700  0.31998000  1
  Cl  Cl55  1  0.97548700  0.89766700  0.68002000  1
  Cl  Cl56  1  0.97548700  0.10233300  0.68002000  1
  Cl  Cl57  1  0.02451300  0.10233300  0.31998000  1
