# generated using pymatgen
data_K2Zr(BO3)2
_symmetry_space_group_name_H-M   'P 1'
_cell_length_a   5.35217007
_cell_length_b   5.35217007
_cell_length_c   17.96531045
_cell_angle_alpha   90.00000000
_cell_angle_beta   90.00000000
_cell_angle_gamma   120.00000000
_symmetry_Int_Tables_number   1
_chemical_formula_structural   K2Zr(BO3)2
_chemical_formula_sum   'K6 Zr3 B6 O18'
_cell_volume   445.68207622
_cell_formula_units_Z   3
loop_
 _symmetry_equiv_pos_site_id
 _symmetry_equiv_pos_as_xyz
  1  'x, y, z'
loop_
 _atom_site_type_symbol
 _atom_site_label
 _atom_site_symmetry_multiplicity
 _atom_site_fract_x
 _atom_site_fract_y
 _atom_site_fract_z
 _atom_site_occupancy
  K  K0  1  0.00000000  0.00000000  0.21041700  1
  K  K1  1  0.66666667  0.33333333  0.12291633  1
  K  K2  1  0.66666667  0.33333333  0.54375033  1
  K  K3  1  0.33333333  0.66666667  0.45624967  1
  K  K4  1  0.33333333  0.66666667  0.87708367  1
  K  K5  1  0.00000000  0.00000000  0.78958300  1
  Zr  Zr6  1  0.00000000  0.00000000  0.00000000  1
  Zr  Zr7  1  0.66666667  0.33333333  0.33333333  1
  Zr  Zr8  1  0.33333333  0.66666667  0.66666667  1
  B  B9  1  0.33333333  0.66666667  0.06936767  1
  B  B10  1  0.33333333  0.66666667  0.26396567  1
  B  B11  1  0.00000000  0.00000000  0.40270100  1
  B  B12  1  0.00000000  0.00000000  0.59729900  1
  B  B13  1  0.66666667  0.33333333  0.73603433  1
  B  B14  1  0.66666667  0.33333333  0.93063233  1
  O  O15  1  0.18369567  0.81630433  0.07006433  1
  O  O16  1  0.48297100  0.96594200  0.26326900  1
  O  O17  1  0.03405800  0.51702900  0.26326900  1
  O  O18  1  0.48297100  0.51702900  0.26326900  1
  O  O19  1  0.18369567  0.36739133  0.07006433  1
  O  O20  1  0.63260867  0.81630433  0.07006433  1
  O  O21  1  0.85036233  0.14963767  0.40339767  1
  O  O22  1  0.14963767  0.29927533  0.59660233  1
  O  O23  1  0.70072467  0.85036233  0.59660233  1
  O  O24  1  0.14963767  0.85036233  0.59660233  1
  O  O25  1  0.85036233  0.70072467  0.40339767  1
  O  O26  1  0.29927533  0.14963767  0.40339767  1
  O  O27  1  0.51702900  0.48297100  0.73673100  1
  O  O28  1  0.81630433  0.63260867  0.92993567  1
  O  O29  1  0.36739133  0.18369567  0.92993567  1
  O  O30  1  0.81630433  0.18369567  0.92993567  1
  O  O31  1  0.51702900  0.03405800  0.73673100  1
  O  O32  1  0.96594200  0.48297100  0.73673100  1
