# generated using pymatgen
data_SnF3
_symmetry_space_group_name_H-M   'P 1'
_cell_length_a   8.80087400
_cell_length_b   8.80087400
_cell_length_c   8.80087400
_cell_angle_alpha   90.00000000
_cell_angle_beta   90.00000000
_cell_angle_gamma   90.00000000
_symmetry_Int_Tables_number   1
_chemical_formula_structural   SnF3
_chemical_formula_sum   'Sn8 F24'
_cell_volume   681.67506785
_cell_formula_units_Z   8
loop_
 _symmetry_equiv_pos_site_id
 _symmetry_equiv_pos_as_xyz
  1  'x, y, z'
loop_
 _atom_site_type_symbol
 _atom_site_label
 _atom_site_symmetry_multiplicity
 _atom_site_fract_x
 _atom_site_fract_y
 _atom_site_fract_z
 _atom_site_occupancy
  Sn  Sn0  1  0.50000000  0.00000000  0.00000000  1
  Sn  Sn1  1  0.00000000  0.00000000  0.00000000  1
  Sn  Sn2  1  0.50000000  0.50000000  0.50000000  1
  Sn  Sn3  1  0.00000000  0.50000000  0.50000000  1
  Sn  Sn4  1  0.00000000  0.00000000  0.50000000  1
  Sn  Sn5  1  0.50000000  0.00000000  0.50000000  1
  Sn  Sn6  1  0.00000000  0.50000000  0.00000000  1
  Sn  Sn7  1  0.50000000  0.50000000  0.00000000  1
  F  F8  1  0.00000000  0.00000000  0.72860700  1
  F  F9  1  0.50000000  0.22860700  0.00000000  1
  F  F10  1  0.50000000  0.00000000  0.77139300  1
  F  F11  1  0.72860700  0.00000000  0.00000000  1
  F  F12  1  0.27139300  0.00000000  0.00000000  1
  F  F13  1  0.50000000  0.77139300  0.00000000  1
  F  F14  1  0.00000000  0.50000000  0.22860700  1
  F  F15  1  0.50000000  0.72860700  0.50000000  1
  F  F16  1  0.50000000  0.50000000  0.27139300  1
  F  F17  1  0.72860700  0.50000000  0.50000000  1
  F  F18  1  0.27139300  0.50000000  0.50000000  1
  F  F19  1  0.50000000  0.27139300  0.50000000  1
  F  F20  1  0.50000000  0.00000000  0.22860700  1
  F  F21  1  0.00000000  0.22860700  0.50000000  1
  F  F22  1  0.00000000  0.00000000  0.27139300  1
  F  F23  1  0.22860700  0.00000000  0.50000000  1
  F  F24  1  0.77139300  0.00000000  0.50000000  1
  F  F25  1  0.00000000  0.77139300  0.50000000  1
  F  F26  1  0.50000000  0.50000000  0.72860700  1
  F  F27  1  0.00000000  0.72860700  0.00000000  1
  F  F28  1  0.00000000  0.50000000  0.77139300  1
  F  F29  1  0.22860700  0.50000000  0.00000000  1
  F  F30  1  0.77139300  0.50000000  0.00000000  1
  F  F31  1  0.00000000  0.27139300  0.00000000  1
