# generated using pymatgen
data_K2PtSe2
_symmetry_space_group_name_H-M   'P 1'
_cell_length_a   3.81232400
_cell_length_b   7.44529400
_cell_length_c   9.90531200
_cell_angle_alpha   90.00000000
_cell_angle_beta   90.00000000
_cell_angle_gamma   90.00000000
_symmetry_Int_Tables_number   1
_chemical_formula_structural   K2PtSe2
_chemical_formula_sum   'K4 Pt2 Se4'
_cell_volume   281.15111787
_cell_formula_units_Z   2
loop_
 _symmetry_equiv_pos_site_id
 _symmetry_equiv_pos_as_xyz
  1  'x, y, z'
loop_
 _atom_site_type_symbol
 _atom_site_label
 _atom_site_symmetry_multiplicity
 _atom_site_fract_x
 _atom_site_fract_y
 _atom_site_fract_z
 _atom_site_occupancy
  K  K0  1  0.00000000  0.50000000  0.79940800  1
  K  K1  1  0.00000000  0.50000000  0.20059200  1
  K  K2  1  0.50000000  0.00000000  0.29940800  1
  K  K3  1  0.50000000  0.00000000  0.70059200  1
  Pt  Pt4  1  0.00000000  0.00000000  0.00000000  1
  Pt  Pt5  1  0.50000000  0.50000000  0.50000000  1
  Se  Se6  1  0.50000000  0.78031500  0.00000000  1
  Se  Se7  1  0.50000000  0.21968500  0.00000000  1
  Se  Se8  1  0.00000000  0.28031500  0.50000000  1
  Se  Se9  1  0.00000000  0.71968500  0.50000000  1
