# generated using pymatgen
data_YbMoClO4
_symmetry_space_group_name_H-M   'P 1'
_cell_length_a   11.73883000
_cell_length_b   6.66875200
_cell_length_c   6.87106949
_cell_angle_alpha   90.00000000
_cell_angle_beta   103.95530573
_cell_angle_gamma   90.00000000
_symmetry_Int_Tables_number   1
_chemical_formula_structural   YbMoClO4
_chemical_formula_sum   'Yb4 Mo4 Cl4 O16'
_cell_volume   522.01401820
_cell_formula_units_Z   4
loop_
 _symmetry_equiv_pos_site_id
 _symmetry_equiv_pos_as_xyz
  1  'x, y, z'
loop_
 _atom_site_type_symbol
 _atom_site_label
 _atom_site_symmetry_multiplicity
 _atom_site_fract_x
 _atom_site_fract_y
 _atom_site_fract_z
 _atom_site_occupancy
  Yb  Yb0  1  0.71664000  0.00000000  0.34852000  1
  Yb  Yb1  1  0.78336000  0.50000000  0.65148000  1
  Yb  Yb2  1  0.21664000  0.50000000  0.34852000  1
  Yb  Yb3  1  0.28336000  0.00000000  0.65148000  1
  Mo  Mo4  1  0.86507400  0.50000000  0.23496600  1
  Mo  Mo5  1  0.63492600  0.00000000  0.76503400  1
  Mo  Mo6  1  0.36507400  0.00000000  0.23496600  1
  Mo  Mo7  1  0.13492600  0.50000000  0.76503400  1
  Cl  Cl8  1  0.51614900  0.50000000  0.14864100  1
  Cl  Cl9  1  0.98385100  0.00000000  0.85135900  1
  Cl  Cl10  1  0.01614900  0.00000000  0.14864100  1
  Cl  Cl11  1  0.48385100  0.50000000  0.85135900  1
  O  O12  1  0.82511400  0.29120100  0.37505300  1
  O  O13  1  0.82511400  0.70879900  0.37505300  1
  O  O14  1  0.51825000  0.00000000  0.24626100  1
  O  O15  1  0.71760400  0.00000000  0.01745300  1
  O  O16  1  0.78239600  0.50000000  0.98254700  1
  O  O17  1  0.98175000  0.50000000  0.75373900  1
  O  O18  1  0.67488600  0.79120100  0.62494700  1
  O  O19  1  0.67488600  0.20879900  0.62494700  1
  O  O20  1  0.32511400  0.79120100  0.37505300  1
  O  O21  1  0.32511400  0.20879900  0.37505300  1
  O  O22  1  0.01825000  0.50000000  0.24626100  1
  O  O23  1  0.21760400  0.50000000  0.01745300  1
  O  O24  1  0.28239600  0.00000000  0.98254700  1
  O  O25  1  0.48175000  0.00000000  0.75373900  1
  O  O26  1  0.17488600  0.29120100  0.62494700  1
  O  O27  1  0.17488600  0.70879900  0.62494700  1
