# generated using pymatgen
data_BaCaI4
_symmetry_space_group_name_H-M   'P 1'
_cell_length_a   9.09102600
_cell_length_b   11.11802100
_cell_length_c   11.47795300
_cell_angle_alpha   90.00000000
_cell_angle_beta   90.00000000
_cell_angle_gamma   90.00000000
_symmetry_Int_Tables_number   1
_chemical_formula_structural   BaCaI4
_chemical_formula_sum   'Ba4 Ca4 I16'
_cell_volume   1160.12512348
_cell_formula_units_Z   4
loop_
 _symmetry_equiv_pos_site_id
 _symmetry_equiv_pos_as_xyz
  1  'x, y, z'
loop_
 _atom_site_type_symbol
 _atom_site_label
 _atom_site_symmetry_multiplicity
 _atom_site_fract_x
 _atom_site_fract_y
 _atom_site_fract_z
 _atom_site_occupancy
  Ba  Ba0  1  0.18071200  0.75000000  0.25000000  1
  Ba  Ba1  1  0.31928800  0.75000000  0.75000000  1
  Ba  Ba2  1  0.68071200  0.25000000  0.25000000  1
  Ba  Ba3  1  0.81928800  0.25000000  0.75000000  1
  Ca  Ca4  1  0.25000000  0.18342700  0.00000000  1
  Ca  Ca5  1  0.25000000  0.31657300  0.50000000  1
  Ca  Ca6  1  0.75000000  0.68342700  0.50000000  1
  Ca  Ca7  1  0.75000000  0.81657300  0.00000000  1
  I  I8  1  0.03699200  0.68988600  0.96714600  1
  I  I9  1  0.03699200  0.81011400  0.53285400  1
  I  I10  1  0.14520500  0.04445300  0.79200400  1
  I  I11  1  0.14520500  0.45554700  0.70799600  1
  I  I12  1  0.35479500  0.04445300  0.20799600  1
  I  I13  1  0.35479500  0.45554700  0.29200400  1
  I  I14  1  0.46300800  0.81011400  0.46714600  1
  I  I15  1  0.46300800  0.68988600  0.03285400  1
  I  I16  1  0.53699200  0.31011400  0.96714600  1
  I  I17  1  0.53699200  0.18988600  0.53285400  1
  I  I18  1  0.64520500  0.54445300  0.70799600  1
  I  I19  1  0.64520500  0.95554700  0.79200400  1
  I  I20  1  0.85479500  0.54445300  0.29200400  1
  I  I21  1  0.85479500  0.95554700  0.20799600  1
  I  I22  1  0.96300800  0.18988600  0.46714600  1
  I  I23  1  0.96300800  0.31011400  0.03285400  1
