# generated using pymatgen
data_K4HgP2
_symmetry_space_group_name_H-M   'P 1'
_cell_length_a   5.70488583
_cell_length_b   5.70488583
_cell_length_c   27.34039468
_cell_angle_alpha   90.00000000
_cell_angle_beta   90.00000000
_cell_angle_gamma   120.00000000
_symmetry_Int_Tables_number   1
_chemical_formula_structural   K4HgP2
_chemical_formula_sum   'K12 Hg3 P6'
_cell_volume   770.60057161
_cell_formula_units_Z   3
loop_
 _symmetry_equiv_pos_site_id
 _symmetry_equiv_pos_as_xyz
  1  'x, y, z'
loop_
 _atom_site_type_symbol
 _atom_site_label
 _atom_site_symmetry_multiplicity
 _atom_site_fract_x
 _atom_site_fract_y
 _atom_site_fract_z
 _atom_site_occupancy
  K  K0  1  0.00000000  0.00000000  0.20746100  1
  K  K1  1  0.66666667  0.33333333  0.12587233  1
  K  K2  1  0.33333333  0.66666667  0.05797267  1
  K  K3  1  0.33333333  0.66666667  0.27536067  1
  K  K4  1  0.66666667  0.33333333  0.54079433  1
  K  K5  1  0.33333333  0.66666667  0.45920567  1
  K  K6  1  0.00000000  0.00000000  0.39130600  1
  K  K7  1  0.00000000  0.00000000  0.60869400  1
  K  K8  1  0.33333333  0.66666667  0.87412767  1
  K  K9  1  0.00000000  0.00000000  0.79253900  1
  K  K10  1  0.66666667  0.33333333  0.72463933  1
  K  K11  1  0.66666667  0.33333333  0.94202733  1
  Hg  Hg12  1  0.00000000  0.00000000  0.00000000  1
  Hg  Hg13  1  0.66666667  0.33333333  0.33333333  1
  Hg  Hg14  1  0.33333333  0.66666667  0.66666667  1
  P  P15  1  0.00000000  0.00000000  0.08862400  1
  P  P16  1  0.66666667  0.33333333  0.24470933  1
  P  P17  1  0.66666667  0.33333333  0.42195733  1
  P  P18  1  0.33333333  0.66666667  0.57804267  1
  P  P19  1  0.33333333  0.66666667  0.75529067  1
  P  P20  1  0.00000000  0.00000000  0.91137600  1
