# generated using pymatgen
data_Rb3CO3F
_symmetry_space_group_name_H-M   'P 1'
_cell_length_a   7.98873777
_cell_length_b   7.98873777
_cell_length_c   17.32883953
_cell_angle_alpha   90.00000000
_cell_angle_beta   90.00000000
_cell_angle_gamma   120.00000000
_symmetry_Int_Tables_number   1
_chemical_formula_structural   Rb3CO3F
_chemical_formula_sum   'Rb18 C6 O18 F6'
_cell_volume   957.75944456
_cell_formula_units_Z   6
loop_
 _symmetry_equiv_pos_site_id
 _symmetry_equiv_pos_as_xyz
  1  'x, y, z'
loop_
 _atom_site_type_symbol
 _atom_site_label
 _atom_site_symmetry_multiplicity
 _atom_site_fract_x
 _atom_site_fract_y
 _atom_site_fract_z
 _atom_site_occupancy
  Rb  Rb0  1  0.24589567  0.91256233  0.08333333  1
  Rb  Rb1  1  0.08743767  0.33333333  0.08333333  1
  Rb  Rb2  1  0.66666667  0.75410433  0.08333333  1
  Rb  Rb3  1  0.42077100  0.42077100  0.25000000  1
  Rb  Rb4  1  0.57922900  0.00000000  0.25000000  1
  Rb  Rb5  1  1.00000000  0.57922900  0.25000000  1
  Rb  Rb6  1  0.91256233  0.24589567  0.41666667  1
  Rb  Rb7  1  0.75410433  0.66666667  0.41666667  1
  Rb  Rb8  1  0.33333333  0.08743767  0.41666667  1
  Rb  Rb9  1  0.08743767  0.75410433  0.58333333  1
  Rb  Rb10  1  0.24589567  0.33333333  0.58333333  1
  Rb  Rb11  1  0.66666667  0.91256233  0.58333333  1
  Rb  Rb12  1  0.57922900  0.57922900  0.75000000  1
  Rb  Rb13  1  0.42077100  1.00000000  0.75000000  1
  Rb  Rb14  1  0.00000000  0.42077100  0.75000000  1
  Rb  Rb15  1  0.75410433  0.08743767  0.91666667  1
  Rb  Rb16  1  0.91256233  0.66666667  0.91666667  1
  Rb  Rb17  1  0.33333333  0.24589567  0.91666667  1
  C  C18  1  0.33333333  0.66666667  0.91666667  1
  C  C19  1  0.33333333  0.66666667  0.41666667  1
  C  C20  1  0.00000000  0.00000000  0.25000000  1
  C  C21  1  0.00000000  0.00000000  0.75000000  1
  C  C22  1  0.66666667  0.33333333  0.58333333  1
  C  C23  1  0.66666667  0.33333333  0.08333333  1
  O  O24  1  0.49735333  0.83068667  0.41666667  1
  O  O25  1  0.16931333  0.66666667  0.41666667  1
  O  O26  1  0.33333333  0.50264667  0.41666667  1
  O  O27  1  0.16931333  0.50264667  0.91666667  1
  O  O28  1  0.33333333  0.83068667  0.91666667  1
  O  O29  1  0.49735333  0.66666667  0.91666667  1
  O  O30  1  0.16402000  0.16402000  0.75000000  1
  O  O31  1  0.83598000  0.00000000  0.75000000  1
  O  O32  1  0.00000000  0.83598000  0.75000000  1
  O  O33  1  0.83598000  0.83598000  0.25000000  1
  O  O34  1  0.00000000  0.16402000  0.25000000  1
  O  O35  1  0.16402000  0.00000000  0.25000000  1
  O  O36  1  0.83068667  0.49735333  0.08333333  1
  O  O37  1  0.50264667  0.33333333  0.08333333  1
  O  O38  1  0.66666667  0.16931333  0.08333333  1
  O  O39  1  0.50264667  0.16931333  0.58333333  1
  O  O40  1  0.66666667  0.49735333  0.58333333  1
  O  O41  1  0.83068667  0.33333333  0.58333333  1
  F  F42  1  0.00000000  0.00000000  0.00000000  1
  F  F43  1  0.33333333  0.66666667  0.16666667  1
  F  F44  1  0.66666667  0.33333333  0.33333333  1
  F  F45  1  0.00000000  0.00000000  0.50000000  1
  F  F46  1  0.33333333  0.66666667  0.66666667  1
  F  F47  1  0.66666667  0.33333333  0.83333333  1
