# generated using pymatgen
data_KYGeS4
_symmetry_space_group_name_H-M   'P 1'
_cell_length_a   6.54213100
_cell_length_b   6.71187800
_cell_length_c   8.70463875
_cell_angle_alpha   90.00000000
_cell_angle_beta   107.32063620
_cell_angle_gamma   90.00000000
_symmetry_Int_Tables_number   1
_chemical_formula_structural   KYGeS4
_chemical_formula_sum   'K2 Y2 Ge2 S8'
_cell_volume   364.88824410
_cell_formula_units_Z   2
loop_
 _symmetry_equiv_pos_site_id
 _symmetry_equiv_pos_as_xyz
  1  'x, y, z'
loop_
 _atom_site_type_symbol
 _atom_site_label
 _atom_site_symmetry_multiplicity
 _atom_site_fract_x
 _atom_site_fract_y
 _atom_site_fract_z
 _atom_site_occupancy
  K  K0  1  0.73317300  0.00912900  0.93462100  1
  K  K1  1  0.26682700  0.50912900  0.06537900  1
  Y  Y2  1  0.22841700  0.49089000  0.55090300  1
  Y  Y3  1  0.77158300  0.99089000  0.44909700  1
  Ge  Ge4  1  0.77478300  0.52585600  0.67451700  1
  Ge  Ge5  1  0.22521700  0.02585600  0.32548300  1
  S  S6  1  0.56940700  0.52786100  0.83369600  1
  S  S7  1  0.02503100  0.76367300  0.71936400  1
  S  S8  1  0.98228200  0.25508500  0.70143000  1
  S  S9  1  0.43403400  0.09450500  0.57308800  1
  S  S10  1  0.56596600  0.59450500  0.42691200  1
  S  S11  1  0.01771800  0.75508500  0.29857000  1
  S  S12  1  0.97496900  0.26367300  0.28063600  1
  S  S13  1  0.43059300  0.02786100  0.16630400  1
