# generated using pymatgen
data_VO2F
_symmetry_space_group_name_H-M   'P 1'
_cell_length_a   17.52992600
_cell_length_b   5.22825200
_cell_length_c   7.36931865
_cell_angle_alpha   90.00000000
_cell_angle_beta   114.15798823
_cell_angle_gamma   90.00000000
_symmetry_Int_Tables_number   1
_chemical_formula_structural   VO2F
_chemical_formula_sum   'V12 O24 F12'
_cell_volume   616.25284736
_cell_formula_units_Z   12
loop_
 _symmetry_equiv_pos_site_id
 _symmetry_equiv_pos_as_xyz
  1  'x, y, z'
loop_
 _atom_site_type_symbol
 _atom_site_label
 _atom_site_symmetry_multiplicity
 _atom_site_fract_x
 _atom_site_fract_y
 _atom_site_fract_z
 _atom_site_occupancy
  V  V0  1  0.00758900  0.95604700  0.48439100  1
  V  V1  1  0.00758900  0.04395300  0.98439100  1
  V  V2  1  0.17308150  0.45158350  0.65434900  1
  V  V3  1  0.17308150  0.54841650  0.15434900  1
  V  V4  1  0.34012950  0.00354150  0.81313700  1
  V  V5  1  0.34012950  0.99645850  0.31313700  1
  V  V6  1  0.50758900  0.45604700  0.48439100  1
  V  V7  1  0.50758900  0.54395300  0.98439100  1
  V  V8  1  0.67308150  0.95158350  0.65434900  1
  V  V9  1  0.67308150  0.04841650  0.15434900  1
  V  V10  1  0.84012950  0.50354150  0.81313700  1
  V  V11  1  0.84012950  0.49645850  0.31313700  1
  O  O12  1  0.49666900  0.55992300  0.25700100  1
  O  O13  1  0.09233500  0.22867300  0.06118900  1
  O  O14  1  0.16861200  0.41708300  0.42596400  1
  O  O15  1  0.16861200  0.58291700  0.92596400  1
  O  O16  1  0.42578550  0.79947650  0.89444600  1
  O  O17  1  0.23679050  0.79119450  0.28222500  1
  O  O18  1  0.09233500  0.77132700  0.56118900  1
  O  O19  1  0.49666900  0.44007700  0.75700100  1
  O  O20  1  0.32958250  0.92045950  0.08686000  1
  O  O21  1  0.32958250  0.07954050  0.58686000  1
  O  O22  1  0.42578550  0.20052350  0.39444600  1
  O  O23  1  0.23679050  0.20880550  0.78222500  1
  O  O24  1  0.99666900  0.05992300  0.25700100  1
  O  O25  1  0.59233500  0.72867300  0.06118900  1
  O  O26  1  0.66861200  0.91708300  0.42596400  1
  O  O27  1  0.66861200  0.08291700  0.92596400  1
  O  O28  1  0.92578550  0.29947650  0.89444600  1
  O  O29  1  0.73679050  0.29119450  0.28222500  1
  O  O30  1  0.59233500  0.27132700  0.56118900  1
  O  O31  1  0.99666900  0.94007700  0.75700100  1
  O  O32  1  0.82958250  0.42045950  0.08686000  1
  O  O33  1  0.82958250  0.57954050  0.58686000  1
  O  O34  1  0.92578550  0.70052350  0.39444600  1
  O  O35  1  0.73679050  0.70880550  0.78222500  1
  F  F36  1  0.07012550  0.28089450  0.61620400  1
  F  F37  1  0.26172100  0.29109700  0.22523400  1
  F  F38  1  0.26172100  0.70890300  0.72523400  1
  F  F39  1  0.39855100  0.70955000  0.44873200  1
  F  F40  1  0.07012550  0.71910550  0.11620400  1
  F  F41  1  0.39855100  0.29045000  0.94873200  1
  F  F42  1  0.57012550  0.78089450  0.61620400  1
  F  F43  1  0.76172100  0.79109700  0.22523400  1
  F  F44  1  0.76172100  0.20890300  0.72523400  1
  F  F45  1  0.89855100  0.20955000  0.44873200  1
  F  F46  1  0.57012550  0.21910550  0.11620400  1
  F  F47  1  0.89855100  0.79045000  0.94873200  1
