# generated using pymatgen
data_NaAl6Fe3Si6B3H3O30F
_symmetry_space_group_name_H-M   'P 1'
_cell_length_a   16.07456935
_cell_length_b   16.07456935
_cell_length_c   7.26841255
_cell_angle_alpha   90.00000000
_cell_angle_beta   90.00000000
_cell_angle_gamma   120.00000000
_symmetry_Int_Tables_number   1
_chemical_formula_structural   NaAl6Fe3Si6B3H3O30F
_chemical_formula_sum   'Na3 Al18 Fe9 Si18 B9 H9 O90 F3'
_cell_volume   1626.48062580
_cell_formula_units_Z   3
loop_
 _symmetry_equiv_pos_site_id
 _symmetry_equiv_pos_as_xyz
  1  'x, y, z'
loop_
 _atom_site_type_symbol
 _atom_site_label
 _atom_site_symmetry_multiplicity
 _atom_site_fract_x
 _atom_site_fract_y
 _atom_site_fract_z
 _atom_site_occupancy
  Na  Na0  1  0.00000000  0.00000000  0.21919300  1
  Na  Na1  1  0.66666667  0.33333333  0.55252633  1
  Na  Na2  1  0.33333333  0.66666667  0.88585967  1
  Al  Al3  1  0.29668400  0.36977100  0.27617600  1
  Al  Al4  1  0.29689567  0.26024633  0.60950933  1
  Al  Al5  1  0.40642033  0.36998267  0.94284267  1
  Al  Al6  1  0.29668400  0.92691300  0.27617600  1
  Al  Al7  1  0.40642033  0.03643767  0.94284267  1
  Al  Al8  1  0.29689567  0.03664933  0.60950933  1
  Al  Al9  1  0.96335067  0.70310433  0.60950933  1
  Al  Al10  1  0.96356233  0.59357967  0.94284267  1
  Al  Al11  1  0.07308700  0.70331600  0.27617600  1
  Al  Al12  1  0.96335067  0.26024633  0.60950933  1
  Al  Al13  1  0.07308700  0.36977100  0.27617600  1
  Al  Al14  1  0.96356233  0.36998267  0.94284267  1
  Al  Al15  1  0.63001733  0.03643767  0.94284267  1
  Al  Al16  1  0.63022900  0.92691300  0.27617600  1
  Al  Al17  1  0.73975367  0.03664933  0.60950933  1
  Al  Al18  1  0.63001733  0.59357967  0.94284267  1
  Al  Al19  1  0.73975367  0.70310433  0.60950933  1
  Al  Al20  1  0.63022900  0.70331600  0.27617600  1
  Fe  Fe21  1  0.11130333  0.05565167  0.63234467  1
  Fe  Fe22  1  0.27768167  0.72231833  0.29901133  1
  Fe  Fe23  1  0.27768167  0.55536333  0.29901133  1
  Fe  Fe24  1  0.77797000  0.38898500  0.96567800  1
  Fe  Fe25  1  0.94434833  0.05565167  0.63234467  1
  Fe  Fe26  1  0.94434833  0.88869667  0.63234467  1
  Fe  Fe27  1  0.44463667  0.72231833  0.29901133  1
  Fe  Fe28  1  0.61101500  0.38898500  0.96567800  1
  Fe  Fe29  1  0.61101500  0.22203000  0.96567800  1
  Si  Si30  1  0.33169567  0.47464133  0.66237633  1
  Si  Si31  1  0.19202533  0.19038767  0.99570967  1
  Si  Si32  1  0.47627900  0.33497100  0.32904300  1
  Si  Si33  1  0.33169567  0.85705433  0.66237633  1
  Si  Si34  1  0.47627900  0.14130800  0.32904300  1
  Si  Si35  1  0.19202533  0.00163767  0.99570967  1
  Si  Si36  1  0.99836233  0.80797467  0.99570967  1
  Si  Si37  1  0.85869200  0.52372100  0.32904300  1
  Si  Si38  1  0.14294567  0.66830433  0.66237633  1
  Si  Si39  1  0.99836233  0.19038767  0.99570967  1
  Si  Si40  1  0.14294567  0.47464133  0.66237633  1
  Si  Si41  1  0.85869200  0.33497100  0.32904300  1
  Si  Si42  1  0.66502900  0.14130800  0.32904300  1
  Si  Si43  1  0.52535867  0.85705433  0.66237633  1
  Si  Si44  1  0.80961233  0.00163767  0.99570967  1
  Si  Si45  1  0.66502900  0.52372100  0.32904300  1
  Si  Si46  1  0.80961233  0.80797467  0.99570967  1
  Si  Si47  1  0.52535867  0.66830433  0.66237633  1
  B  B48  1  0.44425467  0.22212733  0.78232033  1
  B  B49  1  0.11120600  0.88879400  0.44898700  1
  B  B50  1  0.11120600  0.22241200  0.44898700  1
  B  B51  1  0.11092133  0.55546067  0.11565367  1
  B  B52  1  0.77787267  0.22212733  0.78232033  1
  B  B53  1  0.77787267  0.55574533  0.78232033  1
  B  B54  1  0.77758800  0.88879400  0.44898700  1
  B  B55  1  0.44453933  0.55546067  0.11565367  1
  B  B56  1  0.44453933  0.88907867  0.11565367  1
  H  H57  1  0.26517867  0.13258933  0.37765533  1
  H  H58  1  0.20074400  0.79925600  0.04432200  1
  H  H59  1  0.20074400  0.40148800  0.04432200  1
  H  H60  1  0.93184533  0.46592267  0.71098867  1
  H  H61  1  0.86741067  0.13258933  0.37765533  1
  H  H62  1  0.86741067  0.73482133  0.37765533  1
  H  H63  1  0.59851200  0.79925600  0.04432200  1
  H  H64  1  0.53407733  0.46592267  0.71098867  1
  H  H65  1  0.53407733  0.06815467  0.71098867  1
  O  O66  1  0.54252233  0.27126117  0.79956467  1
  O  O67  1  0.06207217  0.93792783  0.46623133  1
  O  O68  1  0.06207217  0.12414433  0.46623133  1
  O  O69  1  0.27089333  0.13544667  0.51104067  1
  O  O70  1  0.19788667  0.80211333  0.17770733  1
  O  O71  1  0.19788667  0.39577333  0.17770733  1
  O  O72  1  0.48032800  0.24016400  0.40037700  1
  O  O73  1  0.09316933  0.90683067  0.06704367  1
  O  O74  1  0.09316933  0.18633867  0.06704367  1
  O  O75  1  0.18666467  0.09333233  0.08650133  1
  O  O76  1  0.24000100  0.75999900  0.75316800  1
  O  O77  1  0.24000100  0.48000200  0.75316800  1
  O  O78  1  0.32544200  0.47078900  0.44000900  1
  O  O79  1  0.19587767  0.18798633  0.77334233  1
  O  O80  1  0.47868033  0.34122467  0.10667567  1
  O  O81  1  0.32544200  0.85465300  0.44000900  1
  O  O82  1  0.47868033  0.13745567  0.10667567  1
  O  O83  1  0.19587767  0.00789133  0.77334233  1
  O  O84  1  0.33342933  0.38112867  0.74530667  1
  O  O85  1  0.28553800  0.28563400  0.07864000  1
  O  O86  1  0.38103267  0.33323733  0.41197333  1
  O  O87  1  0.33342933  0.95230067  0.74530667  1
  O  O88  1  0.38103267  0.04779533  0.41197333  1
  O  O89  1  0.28553800  0.99990400  0.07864000  1
  O  O90  1  0.39500033  0.45576367  0.10760567  1
  O  O91  1  0.21090300  0.27257000  0.44093900  1
  O  O92  1  0.39409667  0.27166633  0.77427233  1
  O  O93  1  0.39500033  0.93923667  0.10760567  1
  O  O94  1  0.39409667  0.12243033  0.77427233  1
  O  O95  1  0.21090300  0.93833300  0.44093900  1
  O  O96  1  0.20918900  0.60459450  0.13289800  1
  O  O97  1  0.72873883  0.27126117  0.79956467  1
  O  O98  1  0.72873883  0.45747767  0.79956467  1
  O  O99  1  0.93756000  0.46878000  0.84437400  1
  O  O100  1  0.86455333  0.13544667  0.51104067  1
  O  O101  1  0.86455333  0.72910667  0.51104067  1
  O  O102  1  0.14699467  0.57349733  0.73371033  1
  O  O103  1  0.75983600  0.24016400  0.40037700  1
  O  O104  1  0.75983600  0.51967200  0.40037700  1
  O  O105  1  0.85333133  0.42666567  0.41983467  1
  O  O106  1  0.90666767  0.09333233  0.08650133  1
  O  O107  1  0.90666767  0.81333533  0.08650133  1
  O  O108  1  0.99210867  0.80412233  0.77334233  1
  O  O109  1  0.86254433  0.52131967  0.10667567  1
  O  O110  1  0.14534700  0.67455800  0.44000900  1
  O  O111  1  0.99210867  0.18798633  0.77334233  1
  O  O112  1  0.14534700  0.47078900  0.44000900  1
  O  O113  1  0.86254433  0.34122467  0.10667567  1
  O  O114  1  0.00009600  0.71446200  0.07864000  1
  O  O115  1  0.95220467  0.61896733  0.41197333  1
  O  O116  1  0.04769933  0.66657067  0.74530667  1
  O  O117  1  0.00009600  0.28563400  0.07864000  1
  O  O118  1  0.04769933  0.38112867  0.74530667  1
  O  O119  1  0.95220467  0.33323733  0.41197333  1
  O  O120  1  0.06166700  0.78909700  0.44093900  1
  O  O121  1  0.87756967  0.60590333  0.77427233  1
  O  O122  1  0.06076333  0.60499967  0.10760567  1
  O  O123  1  0.06166700  0.27257000  0.44093900  1
  O  O124  1  0.06076333  0.45576367  0.10760567  1
  O  O125  1  0.87756967  0.27166633  0.77427233  1
  O  O126  1  0.87585567  0.93792783  0.46623133  1
  O  O127  1  0.39540550  0.60459450  0.13289800  1
  O  O128  1  0.39540550  0.79081100  0.13289800  1
  O  O129  1  0.60422667  0.80211333  0.17770733  1
  O  O130  1  0.53122000  0.46878000  0.84437400  1
  O  O131  1  0.53122000  0.06244000  0.84437400  1
  O  O132  1  0.81366133  0.90683067  0.06704367  1
  O  O133  1  0.42650267  0.57349733  0.73371033  1
  O  O134  1  0.42650267  0.85300533  0.73371033  1
  O  O135  1  0.51999800  0.75999900  0.75316800  1
  O  O136  1  0.57333433  0.42666567  0.41983467  1
  O  O137  1  0.57333433  0.14666867  0.41983467  1
  O  O138  1  0.65877533  0.13745567  0.10667567  1
  O  O139  1  0.52921100  0.85465300  0.44000900  1
  O  O140  1  0.81201367  0.00789133  0.77334233  1
  O  O141  1  0.65877533  0.52131967  0.10667567  1
  O  O142  1  0.81201367  0.80412233  0.77334233  1
  O  O143  1  0.52921100  0.67455800  0.44000900  1
  O  O144  1  0.66676267  0.04779533  0.41197333  1
  O  O145  1  0.61887133  0.95230067  0.74530667  1
  O  O146  1  0.71436600  0.99990400  0.07864000  1
  O  O147  1  0.66676267  0.61896733  0.41197333  1
  O  O148  1  0.71436600  0.71446200  0.07864000  1
  O  O149  1  0.61887133  0.66657067  0.74530667  1
  O  O150  1  0.72833367  0.12243033  0.77427233  1
  O  O151  1  0.54423633  0.93923667  0.10760567  1
  O  O152  1  0.72743000  0.93833300  0.44093900  1
  O  O153  1  0.72833367  0.60590333  0.77427233  1
  O  O154  1  0.72743000  0.78909700  0.44093900  1
  O  O155  1  0.54423633  0.60499967  0.10760567  1
  F  F156  1  0.00000000  0.00000000  0.84942200  1
  F  F157  1  0.66666667  0.33333333  0.18275533  1
  F  F158  1  0.33333333  0.66666667  0.51608867  1
