# generated using pymatgen
data_Sm3Y5O12
_symmetry_space_group_name_H-M   'P 1'
_cell_length_a   10.81825800
_cell_length_b   10.81900400
_cell_length_c   10.82540200
_cell_angle_alpha   90.00000000
_cell_angle_beta   90.00000000
_cell_angle_gamma   90.00000000
_symmetry_Int_Tables_number   1
_chemical_formula_structural   Sm3Y5O12
_chemical_formula_sum   'Sm12 Y20 O48'
_cell_volume   1267.03510762
_cell_formula_units_Z   4
loop_
 _symmetry_equiv_pos_site_id
 _symmetry_equiv_pos_as_xyz
  1  'x, y, z'
loop_
 _atom_site_type_symbol
 _atom_site_label
 _atom_site_symmetry_multiplicity
 _atom_site_fract_x
 _atom_site_fract_y
 _atom_site_fract_z
 _atom_site_occupancy
  Sm  Sm0  1  0.00099850  0.00029450  0.00181050  1
  Sm  Sm1  1  0.99900150  0.49970550  0.00181050  1
  Sm  Sm2  1  0.00099850  0.99970550  0.49818950  1
  Sm  Sm3  1  0.99900150  0.50029450  0.49818950  1
  Sm  Sm4  1  0.50000000  0.25000000  0.21916800  1
  Sm  Sm5  1  0.50000000  0.75000000  0.28083200  1
  Sm  Sm6  1  0.50099850  0.50029450  0.50181050  1
  Sm  Sm7  1  0.49900150  0.99970550  0.50181050  1
  Sm  Sm8  1  0.50099850  0.49970550  0.99818950  1
  Sm  Sm9  1  0.49900150  0.00029450  0.99818950  1
  Sm  Sm10  1  0.00000000  0.75000000  0.71916800  1
  Sm  Sm11  1  0.00000000  0.25000000  0.78083200  1
  Y  Y12  1  0.00000000  0.75000000  0.21844600  1
  Y  Y13  1  0.25000000  0.21846700  0.50000000  1
  Y  Y14  1  0.75000000  0.28153300  0.50000000  1
  Y  Y15  1  0.28258450  0.50000000  0.75000000  1
  Y  Y16  1  0.28008700  0.00000000  0.25000000  1
  Y  Y17  1  0.00000000  0.25000000  0.28155400  1
  Y  Y18  1  0.21741550  0.50000000  0.25000000  1
  Y  Y19  1  0.21991300  0.00000000  0.75000000  1
  Y  Y20  1  0.25000000  0.28250400  0.00000000  1
  Y  Y21  1  0.75000000  0.21749600  0.00000000  1
  Y  Y22  1  0.50000000  0.25000000  0.71844600  1
  Y  Y23  1  0.75000000  0.71846700  0.00000000  1
  Y  Y24  1  0.25000000  0.78153300  0.00000000  1
  Y  Y25  1  0.78258450  0.00000000  0.25000000  1
  Y  Y26  1  0.78008700  0.50000000  0.75000000  1
  Y  Y27  1  0.50000000  0.75000000  0.78155400  1
  Y  Y28  1  0.71741550  0.00000000  0.75000000  1
  Y  Y29  1  0.71991300  0.50000000  0.25000000  1
  Y  Y30  1  0.75000000  0.78250400  0.50000000  1
  Y  Y31  1  0.25000000  0.71749600  0.50000000  1
  O  O32  1  0.13011250  0.10110050  0.35601550  1
  O  O33  1  0.13011250  0.89889950  0.14398450  1
  O  O34  1  0.14502350  0.12987950  0.90003850  1
  O  O35  1  0.14258000  0.63083100  0.10066100  1
  O  O36  1  0.35497650  0.12987950  0.09996150  1
  O  O37  1  0.35742000  0.63083100  0.89933900  1
  O  O38  1  0.86988750  0.39889950  0.35601550  1
  O  O39  1  0.86988750  0.60110050  0.14398450  1
  O  O40  1  0.89733750  0.35939850  0.62821850  1
  O  O41  1  0.39733750  0.14060150  0.37178150  1
  O  O42  1  0.39962900  0.35684300  0.86901100  1
  O  O43  1  0.89962900  0.14315700  0.13098900  1
  O  O44  1  0.60266250  0.35939850  0.37178150  1
  O  O45  1  0.60037100  0.14315700  0.86901100  1
  O  O46  1  0.10266250  0.14060150  0.62821850  1
  O  O47  1  0.10037100  0.35684300  0.13098900  1
  O  O48  1  0.63212050  0.90218850  0.35958250  1
  O  O49  1  0.63212050  0.09781150  0.14041750  1
  O  O50  1  0.14502350  0.87012050  0.59996150  1
  O  O51  1  0.14258000  0.36916900  0.39933900  1
  O  O52  1  0.35497650  0.87012050  0.40003850  1
  O  O53  1  0.35742000  0.36916900  0.60066100  1
  O  O54  1  0.36787950  0.59781150  0.35958250  1
  O  O55  1  0.36787950  0.40218850  0.14041750  1
  O  O56  1  0.63011250  0.60110050  0.85601550  1
  O  O57  1  0.63011250  0.39889950  0.64398450  1
  O  O58  1  0.64502350  0.62987950  0.40003850  1
  O  O59  1  0.64258000  0.13083100  0.60066100  1
  O  O60  1  0.85497650  0.62987950  0.59996150  1
  O  O61  1  0.85742000  0.13083100  0.39933900  1
  O  O62  1  0.36988750  0.89889950  0.85601550  1
  O  O63  1  0.36988750  0.10110050  0.64398450  1
  O  O64  1  0.39733750  0.85939850  0.12821850  1
  O  O65  1  0.89733750  0.64060150  0.87178150  1
  O  O66  1  0.89962900  0.85684300  0.36901100  1
  O  O67  1  0.39962900  0.64315700  0.63098900  1
  O  O68  1  0.10266250  0.85939850  0.87178150  1
  O  O69  1  0.10037100  0.64315700  0.36901100  1
  O  O70  1  0.60266250  0.64060150  0.12821850  1
  O  O71  1  0.60037100  0.85684300  0.63098900  1
  O  O72  1  0.13212050  0.40218850  0.85958250  1
  O  O73  1  0.13212050  0.59781150  0.64041750  1
  O  O74  1  0.64502350  0.37012050  0.09996150  1
  O  O75  1  0.64258000  0.86916900  0.89933900  1
  O  O76  1  0.85497650  0.37012050  0.90003850  1
  O  O77  1  0.85742000  0.86916900  0.10066100  1
  O  O78  1  0.86787950  0.09781150  0.85958250  1
  O  O79  1  0.86787950  0.90218850  0.64041750  1
