# generated using pymatgen
data_Li21(CoO4)4
_symmetry_space_group_name_H-M   'P 1'
_cell_length_a   9.08905300
_cell_length_b   9.37424600
_cell_length_c   9.43184988
_cell_angle_alpha   90.00000000
_cell_angle_beta   90.19366829
_cell_angle_gamma   90.00000000
_symmetry_Int_Tables_number   1
_chemical_formula_structural   Li21(CoO4)4
_chemical_formula_sum   'Li42 Co8 O32'
_cell_volume   803.61749124
_cell_formula_units_Z   2
loop_
 _symmetry_equiv_pos_site_id
 _symmetry_equiv_pos_as_xyz
  1  'x, y, z'
loop_
 _atom_site_type_symbol
 _atom_site_label
 _atom_site_symmetry_multiplicity
 _atom_site_fract_x
 _atom_site_fract_y
 _atom_site_fract_z
 _atom_site_occupancy
  Li  Li0  1  0.88814000  0.88593500  0.63594200  1
  Li  Li1  1  0.88273700  0.10878400  0.86494300  1
  Li  Li2  1  0.88814000  0.11406500  0.13594200  1
  Li  Li3  1  0.88273700  0.89121600  0.36494300  1
  Li  Li4  1  0.87927900  0.64181200  0.84014600  1
  Li  Li5  1  0.87927900  0.35818800  0.34014600  1
  Li  Li6  1  0.84742000  0.37212900  0.89818400  1
  Li  Li7  1  0.84742000  0.62787100  0.39818400  1
  Li  Li8  1  0.67259800  0.86310900  0.88511900  1
  Li  Li9  1  0.67259800  0.13689100  0.38511900  1
  Li  Li10  1  0.65566400  0.61811300  0.60743300  1
  Li  Li11  1  0.63308900  0.59138700  0.88023500  1
  Li  Li12  1  0.65566400  0.38188700  0.10743300  1
  Li  Li13  1  0.63308900  0.40861300  0.38023500  1
  Li  Li14  1  0.61249600  0.13303200  0.86096800  1
  Li  Li15  1  0.61249600  0.86696800  0.36096800  1
  Li  Li16  1  0.64844900  0.14556000  0.62227100  1
  Li  Li17  1  0.64844900  0.85444000  0.12227100  1
  Li  Li18  1  0.60429900  0.38060600  0.64738800  1
  Li  Li19  1  0.60429900  0.61939400  0.14738800  1
  Li  Li20  1  0.39398400  0.88596000  0.85102400  1
  Li  Li21  1  0.39398400  0.11404000  0.35102400  1
  Li  Li22  1  0.38635800  0.64505400  0.88504000  1
  Li  Li23  1  0.38635800  0.35494600  0.38504000  1
  Li  Li24  1  0.37113500  0.10307800  0.62043700  1
  Li  Li25  1  0.38042700  0.63297100  0.63843000  1
  Li  Li26  1  0.37113500  0.89692200  0.12043700  1
  Li  Li27  1  0.38042700  0.36702900  0.13843000  1
  Li  Li28  1  0.33743300  0.12931900  0.88675100  1
  Li  Li29  1  0.33743300  0.87068100  0.38675100  1
  Li  Li30  1  0.33162600  0.36875300  0.62529400  1
  Li  Li31  1  0.33162600  0.63124700  0.12529400  1
  Li  Li32  1  0.16126100  0.86489300  0.60491100  1
  Li  Li33  1  0.13493600  0.62863600  0.89254300  1
  Li  Li34  1  0.16126100  0.13510700  0.10491100  1
  Li  Li35  1  0.13493600  0.37136400  0.39254300  1
  Li  Li36  1  0.11973300  0.37200600  0.86273700  1
  Li  Li37  1  0.11609900  0.60495500  0.62586900  1
  Li  Li38  1  0.11973300  0.62799400  0.36273700  1
  Li  Li39  1  0.11609900  0.39504500  0.12586900  1
  Li  Li40  1  0.10117300  0.13497900  0.65214100  1
  Li  Li41  1  0.10117300  0.86502100  0.15214100  1
  Co  Co42  1  0.88863800  0.38048100  0.62147300  1
  Co  Co43  1  0.88863800  0.61951900  0.12147300  1
  Co  Co44  1  0.60648400  0.88119100  0.62455800  1
  Co  Co45  1  0.60648400  0.11880900  0.12455800  1
  Co  Co46  1  0.39758800  0.38152500  0.87894800  1
  Co  Co47  1  0.39758800  0.61847500  0.37894800  1
  Co  Co48  1  0.11084900  0.89666000  0.87571500  1
  Co  Co49  1  0.11084900  0.10334000  0.37571500  1
  O  O50  1  0.99009600  0.51077100  0.98838300  1
  O  O51  1  0.99009600  0.48922900  0.48838300  1
  O  O52  1  0.97400700  0.26652900  0.75610400  1
  O  O53  1  0.97400700  0.73347100  0.25610400  1
  O  O54  1  0.74458700  0.28507800  0.50442700  1
  O  O55  1  0.75808600  0.49568900  0.74223200  1
  O  O56  1  0.74458700  0.71492200  0.00442700  1
  O  O57  1  0.75808600  0.50431100  0.24223200  1
  O  O58  1  0.74134600  0.21849500  0.00567900  1
  O  O59  1  0.74134600  0.78150500  0.50567900  1
  O  O60  1  0.72975500  0.99741100  0.74262000  1
  O  O61  1  0.72975500  0.00258900  0.24262000  1
  O  O62  1  0.52762400  0.74800900  0.75370500  1
  O  O63  1  0.52762400  0.25199100  0.25370500  1
  O  O64  1  0.51702400  0.99492900  0.99494000  1
  O  O65  1  0.51702400  0.00507100  0.49494000  1
  O  O66  1  0.49106000  0.48975900  0.51515600  1
  O  O67  1  0.49106000  0.51024100  0.01515600  1
  O  O68  1  0.47889300  0.24021700  0.74266700  1
  O  O69  1  0.47889300  0.75978300  0.24266700  1
  O  O70  1  0.26139200  0.51358000  0.76647900  1
  O  O71  1  0.25346300  0.77706800  0.98663000  1
  O  O72  1  0.25403600  0.72043900  0.49909400  1
  O  O73  1  0.26139200  0.48642000  0.26647900  1
  O  O74  1  0.24489500  0.99954900  0.75331100  1
  O  O75  1  0.25346300  0.22293200  0.48663000  1
  O  O76  1  0.25403600  0.27956100  0.99909400  1
  O  O77  1  0.24489500  0.00045100  0.25331100  1
  O  O78  1  0.02925800  0.76328900  0.75331000  1
  O  O79  1  0.02925800  0.23671100  0.25331000  1
  O  O80  1  0.02019300  0.99227900  0.50447700  1
  O  O81  1  0.02019300  0.00772100  0.00447700  1
