# generated using pymatgen
data_Ca3Sn2S7
_symmetry_space_group_name_H-M   'P 1'
_cell_length_a   3.87676300
_cell_length_b   11.34247700
_cell_length_c   12.55014200
_cell_angle_alpha   90.00000000
_cell_angle_beta   90.00000000
_cell_angle_gamma   90.00000000
_symmetry_Int_Tables_number   1
_chemical_formula_structural   Ca3Sn2S7
_chemical_formula_sum   'Ca6 Sn4 S14'
_cell_volume   551.85603832
_cell_formula_units_Z   2
loop_
 _symmetry_equiv_pos_site_id
 _symmetry_equiv_pos_as_xyz
  1  'x, y, z'
loop_
 _atom_site_type_symbol
 _atom_site_label
 _atom_site_symmetry_multiplicity
 _atom_site_fract_x
 _atom_site_fract_y
 _atom_site_fract_z
 _atom_site_occupancy
  Ca  Ca0  1  0.00000000  0.50000000  0.00000000  1
  Ca  Ca1  1  0.00000000  0.00000000  0.50000000  1
  Ca  Ca2  1  0.00000000  0.10981000  0.14699400  1
  Ca  Ca3  1  0.00000000  0.89019000  0.85300600  1
  Ca  Ca4  1  0.00000000  0.60981000  0.35300600  1
  Ca  Ca5  1  0.00000000  0.39019000  0.64699400  1
  Sn  Sn6  1  0.50000000  0.22158200  0.89083300  1
  Sn  Sn7  1  0.50000000  0.77841800  0.10916700  1
  Sn  Sn8  1  0.50000000  0.72158200  0.60916700  1
  Sn  Sn9  1  0.50000000  0.27841800  0.39083300  1
  S  S10  1  0.00000000  0.14595300  0.78978400  1
  S  S11  1  0.00000000  0.85404700  0.21021600  1
  S  S12  1  0.00000000  0.64595300  0.71021600  1
  S  S13  1  0.00000000  0.35404700  0.28978400  1
  S  S14  1  0.50000000  0.20196200  0.56895600  1
  S  S15  1  0.50000000  0.79803800  0.43104400  1
  S  S16  1  0.50000000  0.70196200  0.93104400  1
  S  S17  1  0.50000000  0.29803800  0.06895600  1
  S  S18  1  0.50000000  0.42462200  0.81849500  1
  S  S19  1  0.50000000  0.57537800  0.18150500  1
  S  S20  1  0.50000000  0.92462200  0.68150500  1
  S  S21  1  0.50000000  0.07537800  0.31849500  1
  S  S22  1  0.50000000  0.50000000  0.50000000  1
  S  S23  1  0.50000000  0.00000000  0.00000000  1
