# generated using pymatgen
data_Sr2AsAu
_symmetry_space_group_name_H-M   'P 1'
_cell_length_a   7.67357400
_cell_length_b   7.67357400
_cell_length_c   7.67357400
_cell_angle_alpha   90.00000000
_cell_angle_beta   90.00000000
_cell_angle_gamma   90.00000000
_symmetry_Int_Tables_number   1
_chemical_formula_structural   Sr2AsAu
_chemical_formula_sum   'Sr8 As4 Au4'
_cell_volume   451.84872043
_cell_formula_units_Z   4
loop_
 _symmetry_equiv_pos_site_id
 _symmetry_equiv_pos_as_xyz
  1  'x, y, z'
loop_
 _atom_site_type_symbol
 _atom_site_label
 _atom_site_symmetry_multiplicity
 _atom_site_fract_x
 _atom_site_fract_y
 _atom_site_fract_z
 _atom_site_occupancy
  Sr  Sr0  1  0.25000000  0.75000000  0.75000000  1
  Sr  Sr1  1  0.25000000  0.25000000  0.75000000  1
  Sr  Sr2  1  0.25000000  0.25000000  0.25000000  1
  Sr  Sr3  1  0.25000000  0.75000000  0.25000000  1
  Sr  Sr4  1  0.75000000  0.75000000  0.25000000  1
  Sr  Sr5  1  0.75000000  0.25000000  0.25000000  1
  Sr  Sr6  1  0.75000000  0.25000000  0.75000000  1
  Sr  Sr7  1  0.75000000  0.75000000  0.75000000  1
  As  As8  1  0.50000000  0.00000000  0.00000000  1
  As  As9  1  0.50000000  0.50000000  0.50000000  1
  As  As10  1  0.00000000  0.00000000  0.50000000  1
  As  As11  1  0.00000000  0.50000000  0.00000000  1
  Au  Au12  1  0.00000000  0.00000000  0.00000000  1
  Au  Au13  1  0.00000000  0.50000000  0.50000000  1
  Au  Au14  1  0.50000000  0.00000000  0.50000000  1
  Au  Au15  1  0.50000000  0.50000000  0.00000000  1
