# generated using pymatgen
data_K2SiP2
_symmetry_space_group_name_H-M   'P 1'
_cell_length_a   6.14686400
_cell_length_b   6.93077200
_cell_length_c   13.03699400
_cell_angle_alpha   90.00000000
_cell_angle_beta   90.00000000
_cell_angle_gamma   90.00000000
_symmetry_Int_Tables_number   1
_chemical_formula_structural   K2SiP2
_chemical_formula_sum   'K8 Si4 P8'
_cell_volume   555.40870505
_cell_formula_units_Z   4
loop_
 _symmetry_equiv_pos_site_id
 _symmetry_equiv_pos_as_xyz
  1  'x, y, z'
loop_
 _atom_site_type_symbol
 _atom_site_label
 _atom_site_symmetry_multiplicity
 _atom_site_fract_x
 _atom_site_fract_y
 _atom_site_fract_z
 _atom_site_occupancy
  K  K0  1  0.50000000  0.66184000  0.35408000  1
  K  K1  1  0.00000000  0.83816000  0.14592000  1
  K  K2  1  0.50000000  0.16184000  0.14592000  1
  K  K3  1  0.00000000  0.33816000  0.35408000  1
  K  K4  1  0.00000000  0.16184000  0.85408000  1
  K  K5  1  0.50000000  0.33816000  0.64592000  1
  K  K6  1  0.00000000  0.66184000  0.64592000  1
  K  K7  1  0.50000000  0.83816000  0.85408000  1
  Si  Si8  1  0.75000000  0.50000000  0.00000000  1
  Si  Si9  1  0.25000000  0.50000000  0.00000000  1
  Si  Si10  1  0.25000000  0.00000000  0.50000000  1
  Si  Si11  1  0.75000000  0.00000000  0.50000000  1
  P  P12  1  0.00000000  0.83647200  0.40360500  1
  P  P13  1  0.00000000  0.33647200  0.09639500  1
  P  P14  1  0.50000000  0.16352800  0.40360500  1
  P  P15  1  0.50000000  0.66352800  0.09639500  1
  P  P16  1  0.50000000  0.33647200  0.90360500  1
  P  P17  1  0.50000000  0.83647200  0.59639500  1
  P  P18  1  0.00000000  0.66352800  0.90360500  1
  P  P19  1  0.00000000  0.16352800  0.59639500  1
