# generated using pymatgen
data_AgSbO3
_symmetry_space_group_name_H-M   'P 1'
_cell_length_a   13.27585800
_cell_length_b   9.51139600
_cell_length_c   9.51710234
_cell_angle_alpha   90.00000000
_cell_angle_beta   134.19263889
_cell_angle_gamma   90.00000000
_symmetry_Int_Tables_number   1
_chemical_formula_structural   AgSbO3
_chemical_formula_sum   'Ag12 Sb12 O36'
_cell_volume   861.64993665
_cell_formula_units_Z   12
loop_
 _symmetry_equiv_pos_site_id
 _symmetry_equiv_pos_as_xyz
  1  'x, y, z'
loop_
 _atom_site_type_symbol
 _atom_site_label
 _atom_site_symmetry_multiplicity
 _atom_site_fract_x
 _atom_site_fract_y
 _atom_site_fract_z
 _atom_site_occupancy
  Ag  Ag0  1  0.68912900  0.30832100  0.99961600  1
  Ag  Ag1  1  0.36685650  0.64831550  0.73190900  1
  Ag  Ag2  1  0.13314350  0.14831550  0.26809100  1
  Ag  Ag3  1  0.18655200  0.81743100  0.36689600  1
  Ag  Ag4  1  0.81344800  0.81743100  0.63310400  1
  Ag  Ag5  1  0.81087100  0.80832100  0.00038400  1
  Ag  Ag6  1  0.18912900  0.80832100  0.99961600  1
  Ag  Ag7  1  0.86685650  0.14831550  0.73190900  1
  Ag  Ag8  1  0.63314350  0.64831550  0.26809100  1
  Ag  Ag9  1  0.68655200  0.31743100  0.36689600  1
  Ag  Ag10  1  0.31344800  0.31743100  0.63310400  1
  Ag  Ag11  1  0.31087100  0.30832100  0.00038400  1
  Sb  Sb12  1  0.99759500  0.49890600  0.33619100  1
  Sb  Sb13  1  0.33852400  0.99279300  0.84221900  1
  Sb  Sb14  1  0.50000000  0.65952200  0.50000000  1
  Sb  Sb15  1  0.00000000  0.83827100  0.50000000  1
  Sb  Sb16  1  0.50240500  0.99890600  0.66380900  1
  Sb  Sb17  1  0.16147600  0.49279300  0.15778100  1
  Sb  Sb18  1  0.49759500  0.99890600  0.33619100  1
  Sb  Sb19  1  0.83852400  0.49279300  0.84221900  1
  Sb  Sb20  1  0.00000000  0.15952200  0.50000000  1
  Sb  Sb21  1  0.50000000  0.33827100  0.50000000  1
  Sb  Sb22  1  0.00240500  0.49890600  0.66380900  1
  Sb  Sb23  1  0.66147600  0.99279300  0.15778100  1
  O  O24  1  0.21214200  0.82750500  0.71140300  1
  O  O25  1  0.36071400  0.00278100  0.36615600  1
  O  O26  1  0.13928600  0.50278100  0.63384400  1
  O  O27  1  0.49440050  0.49908850  0.63372100  1
  O  O28  1  0.00559950  0.99908850  0.36627900  1
  O  O29  1  0.16687150  0.49866350  0.37682100  1
  O  O30  1  0.83114950  0.49452750  0.04746000  1
  O  O31  1  0.21509400  0.16477700  0.71903900  1
  O  O32  1  0.99893700  0.71340800  0.66989400  1
  O  O33  1  0.00106300  0.71340800  0.33010600  1
  O  O34  1  0.49318000  0.78617700  0.65950100  1
  O  O35  1  0.50682000  0.78617700  0.34049900  1
  O  O36  1  0.28785800  0.32750500  0.28859700  1
  O  O37  1  0.00000000  0.35159500  0.00000000  1
  O  O38  1  0.33312850  0.99866350  0.62317900  1
  O  O39  1  0.66885050  0.99452750  0.95254000  1
  O  O40  1  0.00000000  0.63102900  0.00000000  1
  O  O41  1  0.28490600  0.66477700  0.28096100  1
  O  O42  1  0.71214200  0.32750500  0.71140300  1
  O  O43  1  0.86071400  0.50278100  0.36615600  1
  O  O44  1  0.63928600  0.00278100  0.63384400  1
  O  O45  1  0.99440050  0.99908850  0.63372100  1
  O  O46  1  0.50559950  0.49908850  0.36627900  1
  O  O47  1  0.66687150  0.99866350  0.37682100  1
  O  O48  1  0.33114950  0.99452750  0.04746000  1
  O  O49  1  0.71509400  0.66477700  0.71903900  1
  O  O50  1  0.49893700  0.21340800  0.66989400  1
  O  O51  1  0.50106300  0.21340800  0.33010600  1
  O  O52  1  0.99318000  0.28617700  0.65950100  1
  O  O53  1  0.00682000  0.28617700  0.34049900  1
  O  O54  1  0.78785800  0.82750500  0.28859700  1
  O  O55  1  0.50000000  0.85159500  0.00000000  1
  O  O56  1  0.83312850  0.49866350  0.62317900  1
  O  O57  1  0.16885050  0.49452750  0.95254000  1
  O  O58  1  0.50000000  0.13102900  0.00000000  1
  O  O59  1  0.78490600  0.16477700  0.28096100  1
