# generated using pymatgen
data_V3O5F
_symmetry_space_group_name_H-M   'P 1'
_cell_length_a   5.52733849
_cell_length_b   4.60883637
_cell_length_c   7.63699113
_cell_angle_alpha   90.00000000
_cell_angle_beta   93.20270693
_cell_angle_gamma   90.00000000
_symmetry_Int_Tables_number   1
_chemical_formula_structural   V3O5F
_chemical_formula_sum   'V6 O10 F2'
_cell_volume   194.24542242
_cell_formula_units_Z   2
loop_
 _symmetry_equiv_pos_site_id
 _symmetry_equiv_pos_as_xyz
  1  'x, y, z'
loop_
 _atom_site_type_symbol
 _atom_site_label
 _atom_site_symmetry_multiplicity
 _atom_site_fract_x
 _atom_site_fract_y
 _atom_site_fract_z
 _atom_site_occupancy
  V  V0  1  0.56988200  0.46206800  0.83838800  1
  V  V1  1  0.43011800  0.96206800  0.16161200  1
  V  V2  1  0.08356200  0.01015300  0.83701600  1
  V  V3  1  0.91643800  0.51015300  0.16298400  1
  V  V4  1  0.25058200  0.50150600  0.52020700  1
  V  V5  1  0.74941800  0.00150600  0.47979300  1
  O  O6  1  0.04961700  0.20772600  0.58952700  1
  O  O7  1  0.95038300  0.70772600  0.41047300  1
  O  O8  1  0.70708400  0.19752100  0.26673000  1
  O  O9  1  0.29291600  0.69752100  0.73327000  1
  O  O10  1  0.38601100  0.20671800  0.94283800  1
  O  O11  1  0.61398900  0.70671800  0.05716200  1
  O  O12  1  0.87898900  0.31831600  0.92797800  1
  O  O13  1  0.12101100  0.81831600  0.07202200  1
  O  O14  1  0.55272200  0.29330800  0.60425200  1
  O  O15  1  0.44727800  0.79330800  0.39574800  1
  F  F16  1  0.22471700  0.30232500  0.26966300  1
  F  F17  1  0.77528300  0.80232500  0.73033700  1
