# generated using pymatgen
data_Li2Mn2P2(H4O5)3
_symmetry_space_group_name_H-M   'P 1'
_cell_length_a   22.39135600
_cell_length_b   4.89574400
_cell_length_c   12.17377356
_cell_angle_alpha   90.00000000
_cell_angle_beta   94.03552477
_cell_angle_gamma   90.00000000
_symmetry_Int_Tables_number   1
_chemical_formula_structural   Li2Mn2P2(H4O5)3
_chemical_formula_sum   'Li8 Mn8 P8 H48 O60'
_cell_volume   1331.20883424
_cell_formula_units_Z   4
loop_
 _symmetry_equiv_pos_site_id
 _symmetry_equiv_pos_as_xyz
  1  'x, y, z'
loop_
 _atom_site_type_symbol
 _atom_site_label
 _atom_site_symmetry_multiplicity
 _atom_site_fract_x
 _atom_site_fract_y
 _atom_site_fract_z
 _atom_site_occupancy
  Li  Li0  1  0.60640900  0.36787000  0.92916900  1
  Li  Li1  1  0.60640900  0.63213000  0.42916900  1
  Li  Li2  1  0.88762500  0.85996600  0.56996500  1
  Li  Li3  1  0.88762500  0.14003400  0.06996500  1
  Li  Li4  1  0.10640900  0.86787000  0.92916900  1
  Li  Li5  1  0.10640900  0.13213000  0.42916900  1
  Li  Li6  1  0.38762500  0.35996600  0.56996500  1
  Li  Li7  1  0.38762500  0.64003400  0.06996500  1
  Mn  Mn8  1  0.74730750  0.32225650  0.87631400  1
  Mn  Mn9  1  0.74668650  0.82166850  0.62226700  1
  Mn  Mn10  1  0.74730750  0.67774350  0.37631400  1
  Mn  Mn11  1  0.74668650  0.17833150  0.12226700  1
  Mn  Mn12  1  0.24730750  0.82225650  0.87631400  1
  Mn  Mn13  1  0.24668650  0.32166850  0.62226700  1
  Mn  Mn14  1  0.24730750  0.17774350  0.37631400  1
  Mn  Mn15  1  0.24668650  0.67833150  0.12226700  1
  P  P16  1  0.66259900  0.84152200  0.78694300  1
  P  P17  1  0.66259900  0.15847800  0.28694300  1
  P  P18  1  0.83122500  0.34010000  0.71154900  1
  P  P19  1  0.83122500  0.65990000  0.21154900  1
  P  P20  1  0.16259900  0.34152200  0.78694300  1
  P  P21  1  0.16259900  0.65847800  0.28694300  1
  P  P22  1  0.33122500  0.84010000  0.71154900  1
  P  P23  1  0.33122500  0.15990000  0.21154900  1
  H  H24  1  0.51502050  0.04589550  0.85073100  1
  H  H25  1  0.53242100  0.69342000  0.77036400  1
  H  H26  1  0.51502050  0.95410450  0.35073100  1
  H  H27  1  0.56379850  0.54739550  0.62526500  1
  H  H28  1  0.53242100  0.30658000  0.27036400  1
  H  H29  1  0.56379850  0.45260450  0.12526500  1
  H  H30  1  0.61457850  0.34521350  0.60638000  1
  H  H31  1  0.61457850  0.65478650  0.10638000  1
  H  H32  1  0.76416350  0.86430850  0.93414900  1
  H  H33  1  0.72923850  0.36492650  0.56676300  1
  H  H34  1  0.76416350  0.13569150  0.43414900  1
  H  H35  1  0.72923850  0.63507350  0.06676300  1
  H  H36  1  0.87995950  0.85281150  0.89067000  1
  H  H37  1  0.87995950  0.14718850  0.39067000  1
  H  H38  1  0.93256050  0.04856850  0.87474000  1
  H  H39  1  0.95910600  0.19564300  0.72624900  1
  H  H40  1  0.93256050  0.95143150  0.37474000  1
  H  H41  1  0.97905400  0.54685200  0.65039600  1
  H  H42  1  0.99276250  0.73062050  0.94270300  1
  H  H43  1  0.95910600  0.80435700  0.22624900  1
  H  H44  1  0.50253450  0.23363750  0.55996100  1
  H  H45  1  0.97905400  0.45314800  0.15039600  1
  H  H46  1  0.99276250  0.26937950  0.44270300  1
  H  H47  1  0.50253450  0.76636250  0.05996100  1
  H  H48  1  0.01502050  0.54589550  0.85073100  1
  H  H49  1  0.03242100  0.19342000  0.77036400  1
  H  H50  1  0.01502050  0.45410450  0.35073100  1
  H  H51  1  0.06379850  0.04739550  0.62526500  1
  H  H52  1  0.03242100  0.80658000  0.27036400  1
  H  H53  1  0.06379850  0.95260450  0.12526500  1
  H  H54  1  0.11457850  0.84521350  0.60638000  1
  H  H55  1  0.11457850  0.15478650  0.10638000  1
  H  H56  1  0.26416350  0.36430850  0.93414900  1
  H  H57  1  0.22923850  0.86492650  0.56676300  1
  H  H58  1  0.26416350  0.63569150  0.43414900  1
  H  H59  1  0.22923850  0.13507350  0.06676300  1
  H  H60  1  0.37995950  0.35281150  0.89067000  1
  H  H61  1  0.37995950  0.64718850  0.39067000  1
  H  H62  1  0.43256050  0.54856850  0.87474000  1
  H  H63  1  0.45910600  0.69564300  0.72624900  1
  H  H64  1  0.43256050  0.45143150  0.37474000  1
  H  H65  1  0.47905400  0.04685200  0.65039600  1
  H  H66  1  0.49276250  0.23062050  0.94270300  1
  H  H67  1  0.45910600  0.30435700  0.22624900  1
  H  H68  1  0.00253450  0.73363750  0.55996100  1
  H  H69  1  0.47905400  0.95314800  0.15039600  1
  H  H70  1  0.49276250  0.76937950  0.44270300  1
  H  H71  1  0.00253450  0.26636250  0.05996100  1
  O  O72  1  0.52932800  0.17932600  0.90765600  1
  O  O73  1  0.52932800  0.82067400  0.40765600  1
  O  O74  1  0.57984600  0.43234100  0.56873700  1
  O  O75  1  0.60875150  0.67260350  0.81394600  1
  O  O76  1  0.57984600  0.56765900  0.06873700  1
  O  O77  1  0.66404600  0.91425500  0.66165000  1
  O  O78  1  0.60875150  0.32739650  0.31394600  1
  O  O79  1  0.66922600  0.11050400  0.85627100  1
  O  O80  1  0.66404600  0.08574500  0.16165000  1
  O  O81  1  0.66922600  0.88949600  0.35627100  1
  O  O82  1  0.72328000  0.67444400  0.80975700  1
  O  O83  1  0.71394350  0.53036450  0.52954500  1
  O  O84  1  0.72328000  0.32555600  0.30975700  1
  O  O85  1  0.77999350  0.03230750  0.97003300  1
  O  O86  1  0.71394350  0.46963550  0.02954500  1
  O  O87  1  0.77034500  0.17398900  0.68872300  1
  O  O88  1  0.77999350  0.96769250  0.47003300  1
  O  O89  1  0.77034500  0.82601100  0.18872300  1
  O  O90  1  0.82493200  0.60839900  0.64192800  1
  O  O91  1  0.82984150  0.41356750  0.83656900  1
  O  O92  1  0.82493200  0.39160100  0.14192800  1
  O  O93  1  0.88468150  0.16860150  0.68442700  1
  O  O94  1  0.82984150  0.58643250  0.33656900  1
  O  O95  1  0.91504100  0.93451300  0.93023100  1
  O  O96  1  0.88468150  0.83139850  0.18442700  1
  O  O97  1  0.91504100  0.06548700  0.43023100  1
  O  O98  1  0.96573900  0.68479600  0.59461800  1
  O  O99  1  0.99586600  0.30089100  0.74984100  1
  O  O100  1  0.96573900  0.31520400  0.09461800  1
  O  O101  1  0.99586600  0.69910900  0.24984100  1
  O  O102  1  0.02932800  0.67932600  0.90765600  1
  O  O103  1  0.02932800  0.32067400  0.40765600  1
  O  O104  1  0.07984600  0.93234100  0.56873700  1
  O  O105  1  0.10875150  0.17260350  0.81394600  1
  O  O106  1  0.07984600  0.06765900  0.06873700  1
  O  O107  1  0.16404600  0.41425500  0.66165000  1
  O  O108  1  0.10875150  0.82739650  0.31394600  1
  O  O109  1  0.16922600  0.61050400  0.85627100  1
  O  O110  1  0.16404600  0.58574500  0.16165000  1
  O  O111  1  0.16922600  0.38949600  0.35627100  1
  O  O112  1  0.22328000  0.17444400  0.80975700  1
  O  O113  1  0.21394350  0.03036450  0.52954500  1
  O  O114  1  0.22328000  0.82555600  0.30975700  1
  O  O115  1  0.27999350  0.53230750  0.97003300  1
  O  O116  1  0.21394350  0.96963550  0.02954500  1
  O  O117  1  0.27034500  0.67398900  0.68872300  1
  O  O118  1  0.27999350  0.46769250  0.47003300  1
  O  O119  1  0.27034500  0.32601100  0.18872300  1
  O  O120  1  0.32493200  0.10839900  0.64192800  1
  O  O121  1  0.32984150  0.91356750  0.83656900  1
  O  O122  1  0.32493200  0.89160100  0.14192800  1
  O  O123  1  0.38468150  0.66860150  0.68442700  1
  O  O124  1  0.32984150  0.08643250  0.33656900  1
  O  O125  1  0.41504100  0.43451300  0.93023100  1
  O  O126  1  0.38468150  0.33139850  0.18442700  1
  O  O127  1  0.41504100  0.56548700  0.43023100  1
  O  O128  1  0.46573900  0.18479600  0.59461800  1
  O  O129  1  0.49586600  0.80089100  0.74984100  1
  O  O130  1  0.46573900  0.81520400  0.09461800  1
  O  O131  1  0.49586600  0.19910900  0.24984100  1
