# generated using pymatgen
data_V6O11
_symmetry_space_group_name_H-M   'P 1'
_cell_length_a   5.77163800
_cell_length_b   10.21561400
_cell_length_c   13.40120300
_cell_angle_alpha   90.00000000
_cell_angle_beta   90.00000000
_cell_angle_gamma   90.00000000
_symmetry_Int_Tables_number   1
_chemical_formula_structural   V6O11
_chemical_formula_sum   'V24 O44'
_cell_volume   790.14599768
_cell_formula_units_Z   4
loop_
 _symmetry_equiv_pos_site_id
 _symmetry_equiv_pos_as_xyz
  1  'x, y, z'
loop_
 _atom_site_type_symbol
 _atom_site_label
 _atom_site_symmetry_multiplicity
 _atom_site_fract_x
 _atom_site_fract_y
 _atom_site_fract_z
 _atom_site_occupancy
  V  V0  1  0.00000000  0.00064600  0.14878700  1
  V  V1  1  0.00000000  0.00064600  0.35121300  1
  V  V2  1  0.50000000  0.00000000  0.00000000  1
  V  V3  1  0.75000000  0.25000000  0.00000000  1
  V  V4  1  0.25000000  0.25000000  0.00000000  1
  V  V5  1  0.00000000  0.33073600  0.75000000  1
  V  V6  1  0.50000000  0.16926400  0.25000000  1
  V  V7  1  0.25000000  0.25000000  0.50000000  1
  V  V8  1  0.75000000  0.25000000  0.50000000  1
  V  V9  1  0.50000000  0.00000000  0.50000000  1
  V  V10  1  0.50000000  0.49935400  0.85121300  1
  V  V11  1  0.50000000  0.49935400  0.64878700  1
  V  V12  1  0.50000000  0.50064600  0.14878700  1
  V  V13  1  0.50000000  0.50064600  0.35121300  1
  V  V14  1  0.00000000  0.50000000  0.00000000  1
  V  V15  1  0.25000000  0.75000000  0.00000000  1
  V  V16  1  0.75000000  0.75000000  0.00000000  1
  V  V17  1  0.50000000  0.83073600  0.75000000  1
  V  V18  1  0.00000000  0.66926400  0.25000000  1
  V  V19  1  0.75000000  0.75000000  0.50000000  1
  V  V20  1  0.25000000  0.75000000  0.50000000  1
  V  V21  1  0.00000000  0.50000000  0.50000000  1
  V  V22  1  0.00000000  0.99935400  0.85121300  1
  V  V23  1  0.00000000  0.99935400  0.64878700  1
  O  O24  1  0.22891200  0.07259000  0.25000000  1
  O  O25  1  0.00000000  0.15984600  0.75000000  1
  O  O26  1  0.25714800  0.08530700  0.92617400  1
  O  O27  1  0.25714800  0.08530700  0.57382600  1
  O  O28  1  0.00000000  0.17534600  0.07445900  1
  O  O29  1  0.00000000  0.17534600  0.42554100  1
  O  O30  1  0.77108800  0.07259000  0.25000000  1
  O  O31  1  0.74285200  0.08530700  0.92617400  1
  O  O32  1  0.50000000  0.16655300  0.41369600  1
  O  O33  1  0.50000000  0.16655300  0.08630400  1
  O  O34  1  0.74285200  0.08530700  0.57382600  1
  O  O35  1  0.75714800  0.41469300  0.07382600  1
  O  O36  1  0.00000000  0.33344700  0.58630400  1
  O  O37  1  0.00000000  0.33344700  0.91369600  1
  O  O38  1  0.75714800  0.41469300  0.42617400  1
  O  O39  1  0.72891200  0.42741000  0.75000000  1
  O  O40  1  0.50000000  0.32465400  0.92554100  1
  O  O41  1  0.50000000  0.32465400  0.57445900  1
  O  O42  1  0.24285200  0.41469300  0.07382600  1
  O  O43  1  0.24285200  0.41469300  0.42617400  1
  O  O44  1  0.50000000  0.34015400  0.25000000  1
  O  O45  1  0.27108800  0.42741000  0.75000000  1
  O  O46  1  0.72891200  0.57259000  0.25000000  1
  O  O47  1  0.50000000  0.65984600  0.75000000  1
  O  O48  1  0.75714800  0.58530700  0.92617400  1
  O  O49  1  0.75714800  0.58530700  0.57382600  1
  O  O50  1  0.50000000  0.67534600  0.07445900  1
  O  O51  1  0.50000000  0.67534600  0.42554100  1
  O  O52  1  0.27108800  0.57259000  0.25000000  1
  O  O53  1  0.24285200  0.58530700  0.92617400  1
  O  O54  1  0.00000000  0.66655300  0.41369600  1
  O  O55  1  0.00000000  0.66655300  0.08630400  1
  O  O56  1  0.24285200  0.58530700  0.57382600  1
  O  O57  1  0.25714800  0.91469300  0.07382600  1
  O  O58  1  0.50000000  0.83344700  0.58630400  1
  O  O59  1  0.50000000  0.83344700  0.91369600  1
  O  O60  1  0.25714800  0.91469300  0.42617400  1
  O  O61  1  0.22891200  0.92741000  0.75000000  1
  O  O62  1  0.00000000  0.82465400  0.92554100  1
  O  O63  1  0.00000000  0.82465400  0.57445900  1
  O  O64  1  0.74285200  0.91469300  0.07382600  1
  O  O65  1  0.74285200  0.91469300  0.42617400  1
  O  O66  1  0.00000000  0.84015400  0.25000000  1
  O  O67  1  0.77108800  0.92741000  0.75000000  1
