# generated using pymatgen
data_K2Si4O9
_symmetry_space_group_name_H-M   'P 1'
_cell_length_a   6.70507593
_cell_length_b   6.70507593
_cell_length_c   9.63649300
_cell_angle_alpha   90.00000000
_cell_angle_beta   90.00000000
_cell_angle_gamma   120.00000000
_symmetry_Int_Tables_number   1
_chemical_formula_structural   K2Si4O9
_chemical_formula_sum   'K4 Si8 O18'
_cell_volume   375.19500086
_cell_formula_units_Z   2
loop_
 _symmetry_equiv_pos_site_id
 _symmetry_equiv_pos_as_xyz
  1  'x, y, z'
loop_
 _atom_site_type_symbol
 _atom_site_label
 _atom_site_symmetry_multiplicity
 _atom_site_fract_x
 _atom_site_fract_y
 _atom_site_fract_z
 _atom_site_occupancy
  K  K0  1  0.66666667  0.33333333  0.94155600  1
  K  K1  1  0.33333333  0.66666667  0.44155600  1
  K  K2  1  0.33333333  0.66666667  0.05844400  1
  K  K3  1  0.66666667  0.33333333  0.55844400  1
  Si  Si4  1  0.76818000  0.13392400  0.25000000  1
  Si  Si5  1  0.63425600  0.76818000  0.75000000  1
  Si  Si6  1  0.13392400  0.36574400  0.75000000  1
  Si  Si7  1  0.86607600  0.63425600  0.25000000  1
  Si  Si8  1  0.36574400  0.23182000  0.25000000  1
  Si  Si9  1  0.23182000  0.86607600  0.75000000  1
  Si  Si10  1  0.00000000  0.00000000  0.00000000  1
  Si  Si11  1  0.00000000  0.00000000  0.50000000  1
  O  O12  1  0.20720100  0.97405400  0.89406800  1
  O  O13  1  0.23314700  0.20720100  0.39406800  1
  O  O14  1  0.97405400  0.76685300  0.39406800  1
  O  O15  1  0.02594600  0.23314700  0.89406800  1
  O  O16  1  0.76685300  0.79279900  0.89406800  1
  O  O17  1  0.79279900  0.02594600  0.39406800  1
  O  O18  1  0.79279900  0.02594600  0.10593200  1
  O  O19  1  0.76685300  0.79279900  0.60593200  1
  O  O20  1  0.02594600  0.23314700  0.60593200  1
  O  O21  1  0.97405400  0.76685300  0.10593200  1
  O  O22  1  0.23314700  0.20720100  0.10593200  1
  O  O23  1  0.20720100  0.97405400  0.60593200  1
  O  O24  1  0.07331200  0.58017800  0.75000000  1
  O  O25  1  0.49313400  0.07331200  0.25000000  1
  O  O26  1  0.58017800  0.50686600  0.25000000  1
  O  O27  1  0.41982200  0.49313400  0.75000000  1
  O  O28  1  0.50686600  0.92668800  0.75000000  1
  O  O29  1  0.92668800  0.41982200  0.25000000  1
