# generated using pymatgen
data_Li5Si2BiO8
_symmetry_space_group_name_H-M   'P 1'
_cell_length_a   7.50253400
_cell_length_b   7.86203000
_cell_length_c   6.47183533
_cell_angle_alpha   90.00000000
_cell_angle_beta   90.94396865
_cell_angle_gamma   90.00000000
_symmetry_Int_Tables_number   1
_chemical_formula_structural   Li5Si2BiO8
_chemical_formula_sum   'Li10 Si4 Bi2 O16'
_cell_volume   381.69035236
_cell_formula_units_Z   2
loop_
 _symmetry_equiv_pos_site_id
 _symmetry_equiv_pos_as_xyz
  1  'x, y, z'
loop_
 _atom_site_type_symbol
 _atom_site_label
 _atom_site_symmetry_multiplicity
 _atom_site_fract_x
 _atom_site_fract_y
 _atom_site_fract_z
 _atom_site_occupancy
  Li  Li0  1  0.17435200  0.00790100  0.27971400  1
  Li  Li1  1  0.50000000  0.17435400  0.50000000  1
  Li  Li2  1  0.50000000  0.82371800  0.50000000  1
  Li  Li3  1  0.50000000  0.78927500  0.00000000  1
  Li  Li4  1  0.82564800  0.00790100  0.72028600  1
  Li  Li5  1  0.67435200  0.50790100  0.27971400  1
  Li  Li6  1  0.00000000  0.67435400  0.50000000  1
  Li  Li7  1  0.00000000  0.32371800  0.50000000  1
  Li  Li8  1  0.00000000  0.28927500  0.00000000  1
  Li  Li9  1  0.32564800  0.50790100  0.72028600  1
  Si  Si10  1  0.17113700  0.00792800  0.73512800  1
  Si  Si11  1  0.82886300  0.00792800  0.26487200  1
  Si  Si12  1  0.67113700  0.50792800  0.73512800  1
  Si  Si13  1  0.32886300  0.50792800  0.26487200  1
  Bi  Bi14  1  0.50000000  0.18192400  0.00000000  1
  Bi  Bi15  1  0.00000000  0.68192400  0.00000000  1
  O  O16  1  0.30893250  0.00917950  0.54354000  1
  O  O17  1  0.28240850  0.97909050  0.96440600  1
  O  O18  1  0.46192200  0.67139700  0.25347600  1
  O  O19  1  0.46768700  0.33986900  0.28159800  1
  O  O20  1  0.53807800  0.67139700  0.74652400  1
  O  O21  1  0.53231300  0.33986900  0.71840200  1
  O  O22  1  0.69106750  0.00917950  0.45646000  1
  O  O23  1  0.71759150  0.97909050  0.03559400  1
  O  O24  1  0.80893250  0.50917950  0.54354000  1
  O  O25  1  0.78240850  0.47909050  0.96440600  1
  O  O26  1  0.96192200  0.17139700  0.25347600  1
  O  O27  1  0.96768700  0.83986900  0.28159800  1
  O  O28  1  0.03807800  0.17139700  0.74652400  1
  O  O29  1  0.03231300  0.83986900  0.71840200  1
  O  O30  1  0.19106750  0.50917950  0.45646000  1
  O  O31  1  0.21759150  0.47909050  0.03559400  1
