# generated using pymatgen
data_Na2Ti4O9
_symmetry_space_group_name_H-M   'P 1'
_cell_length_a   8.87144900
_cell_length_b   11.13426553
_cell_length_c   11.75543726
_cell_angle_alpha   75.93888997
_cell_angle_beta   82.64717850
_cell_angle_gamma   74.58792787
_symmetry_Int_Tables_number   1
_chemical_formula_structural   Na2Ti4O9
_chemical_formula_sum   'Na12 Ti24 O54'
_cell_volume   1083.37136867
_cell_formula_units_Z   6
loop_
 _symmetry_equiv_pos_site_id
 _symmetry_equiv_pos_as_xyz
  1  'x, y, z'
loop_
 _atom_site_type_symbol
 _atom_site_label
 _atom_site_symmetry_multiplicity
 _atom_site_fract_x
 _atom_site_fract_y
 _atom_site_fract_z
 _atom_site_occupancy
  Na  Na0  1  0.94905700  0.29712200  0.85290500  1
  Na  Na1  1  0.56904800  0.30603300  0.85878900  1
  Na  Na2  1  0.84406100  0.60421900  0.72380100  1
  Na  Na3  1  0.51209300  0.60302800  0.72656300  1
  Na  Na4  1  0.18085600  0.59467300  0.72544100  1
  Na  Na5  1  0.52162100  0.09996600  0.71346900  1
  Na  Na6  1  0.16219200  0.90011600  0.28517800  1
  Na  Na7  1  0.82195800  0.39803000  0.27694100  1
  Na  Na8  1  0.48506200  0.40574000  0.27503000  1
  Na  Na9  1  0.15487000  0.39770300  0.27290200  1
  Na  Na10  1  0.71065700  0.70699400  0.14798500  1
  Na  Na11  1  0.09514600  0.69493500  0.14182700  1
  Ti  Ti12  1  0.91703100  0.81346900  0.87548200  1
  Ti  Ti13  1  0.58366200  0.81029300  0.87660400  1
  Ti  Ti14  1  0.17241500  0.49132000  0.99059000  1
  Ti  Ti15  1  0.99978200  0.00426800  0.99660900  1
  Ti  Ti16  1  0.24867400  0.81203900  0.87571500  1
  Ti  Ti17  1  0.94480800  0.88208700  0.57004100  1
  Ti  Ti18  1  0.61557200  0.87395400  0.56245300  1
  Ti  Ti19  1  0.27754200  0.88222000  0.57031800  1
  Ti  Ti20  1  0.78107700  0.37476900  0.55855200  1
  Ti  Ti21  1  0.44835400  0.37606600  0.55365700  1
  Ti  Ti22  1  0.88612100  0.62374500  0.44309100  1
  Ti  Ti23  1  0.11784400  0.37122300  0.55920000  1
  Ti  Ti24  1  0.54938800  0.62646500  0.44193300  1
  Ti  Ti25  1  0.21820600  0.62269200  0.44730800  1
  Ti  Ti26  1  0.72203600  0.11812100  0.42957000  1
  Ti  Ti27  1  0.38930100  0.11731900  0.42967800  1
  Ti  Ti28  1  0.05106400  0.12566600  0.43674000  1
  Ti  Ti29  1  0.66763200  0.99688400  0.00293200  1
  Ti  Ti30  1  0.33318700  0.00117700  0.99862100  1
  Ti  Ti31  1  0.74936700  0.18757900  0.12455900  1
  Ti  Ti32  1  0.41803600  0.18728300  0.12400600  1
  Ti  Ti33  1  0.83389200  0.50129100  0.00052100  1
  Ti  Ti34  1  0.49651400  0.50865900  0.00900300  1
  Ti  Ti35  1  0.08206300  0.19112600  0.12308200  1
  O  O36  1  0.77740200  0.69590400  0.94066800  1
  O  O37  1  0.44462700  0.69549700  0.93900400  1
  O  O38  1  0.71010000  0.94077100  0.84957200  1
  O  O39  1  0.11236600  0.69501200  0.93802500  1
  O  O40  1  0.38006500  0.93985200  0.85044000  1
  O  O41  1  0.04556400  0.93807800  0.85140300  1
  O  O42  1  0.68935800  0.48474500  0.89359700  1
  O  O43  1  0.79950400  0.12618700  0.95570500  1
  O  O44  1  0.35705100  0.48917300  0.89045600  1
  O  O45  1  0.46855200  0.12276400  0.95376100  1
  O  O46  1  0.02023400  0.48751500  0.88841900  1
  O  O47  1  0.95258400  0.78107200  0.72654100  1
  O  O48  1  0.13104600  0.12381200  0.95588800  1
  O  O49  1  0.61798200  0.78400500  0.72563900  1
  O  O50  1  0.28462700  0.78058000  0.72665100  1
  O  O51  1  0.73609200  0.99057700  0.59161000  1
  O  O52  1  0.40691300  0.99015600  0.59151200  1
  O  O53  1  0.07083600  0.99146400  0.59340100  1
  O  O54  1  0.94767800  0.32526500  0.65687000  1
  O  O55  1  0.61487700  0.31889200  0.65720100  1
  O  O56  1  0.82273000  0.77747200  0.51824600  1
  O  O57  1  0.72022700  0.55249000  0.56989500  1
  O  O58  1  0.28784900  0.31725600  0.65389600  1
  O  O59  1  0.48705000  0.77771800  0.51818600  1
  O  O60  1  0.38641300  0.55268400  0.57040900  1
  O  O61  1  0.15331100  0.78307900  0.51384800  1
  O  O62  1  0.05592800  0.55151900  0.57024900  1
  O  O63  1  0.94715200  0.44596300  0.43200000  1
  O  O64  1  0.84480200  0.22214800  0.48189900  1
  O  O65  1  0.61146900  0.44679600  0.43109800  1
  O  O66  1  0.51400800  0.21652200  0.48593300  1
  O  O67  1  0.71983400  0.67203500  0.34437700  1
  O  O68  1  0.28049100  0.44601600  0.43054700  1
  O  O69  1  0.18062100  0.22116400  0.48195900  1
  O  O70  1  0.37990400  0.68052400  0.34669600  1
  O  O71  1  0.05215900  0.67910100  0.34406500  1
  O  O72  1  0.93150400  0.00970000  0.40782300  1
  O  O73  1  0.59695300  0.00837000  0.40616800  1
  O  O74  1  0.26073000  0.00915000  0.40778900  1
  O  O75  1  0.71416400  0.21996300  0.27340800  1
  O  O76  1  0.38203400  0.21835800  0.27315800  1
  O  O77  1  0.04873900  0.21721800  0.27399200  1
  O  O78  1  0.86631600  0.87468700  0.04381000  1
  O  O79  1  0.97578500  0.51563000  0.10702300  1
  O  O80  1  0.53463900  0.87777600  0.04265500  1
  O  O81  1  0.64491300  0.51386800  0.11192500  1
  O  O82  1  0.19772700  0.87864800  0.04584400  1
  O  O83  1  0.30869000  0.51131700  0.10865700  1
  O  O84  1  0.95672700  0.06046300  0.14969800  1
  O  O85  1  0.62127200  0.06198200  0.14851400  1
  O  O86  1  0.88849800  0.30516900  0.05946200  1
  O  O87  1  0.28637900  0.06054000  0.14838400  1
  O  O88  1  0.55398000  0.30535600  0.06213500  1
  O  O89  1  0.22215800  0.30489300  0.06031200  1
