# generated using pymatgen
data_BiTeO4
_symmetry_space_group_name_H-M   'P 1'
_cell_length_a   12.95559400
_cell_length_b   5.65564200
_cell_length_c   10.45194296
_cell_angle_alpha   90.00000000
_cell_angle_beta   115.31569913
_cell_angle_gamma   90.00000000
_symmetry_Int_Tables_number   1
_chemical_formula_structural   BiTeO4
_chemical_formula_sum   'Bi8 Te8 O32'
_cell_volume   692.29004843
_cell_formula_units_Z   8
loop_
 _symmetry_equiv_pos_site_id
 _symmetry_equiv_pos_as_xyz
  1  'x, y, z'
loop_
 _atom_site_type_symbol
 _atom_site_label
 _atom_site_symmetry_multiplicity
 _atom_site_fract_x
 _atom_site_fract_y
 _atom_site_fract_z
 _atom_site_occupancy
  Bi  Bi0  1  0.77428100  0.45529700  0.15444900  1
  Bi  Bi1  1  0.99977550  0.04080350  0.74251300  1
  Bi  Bi2  1  0.99977550  0.95919650  0.24251300  1
  Bi  Bi3  1  0.27428100  0.04470300  0.65444900  1
  Bi  Bi4  1  0.27428100  0.95529700  0.15444900  1
  Bi  Bi5  1  0.49977550  0.54080350  0.74251300  1
  Bi  Bi6  1  0.49977550  0.45919650  0.24251300  1
  Bi  Bi7  1  0.77428100  0.54470300  0.65444900  1
  Te  Te8  1  0.72802300  0.92120900  0.38443700  1
  Te  Te9  1  0.99877150  0.49282950  0.50328600  1
  Te  Te10  1  0.22802300  0.57879100  0.88443700  1
  Te  Te11  1  0.99877150  0.50717050  0.00328600  1
  Te  Te12  1  0.22802300  0.42120900  0.38443700  1
  Te  Te13  1  0.49877150  0.99282950  0.50328600  1
  Te  Te14  1  0.72802300  0.07879100  0.88443700  1
  Te  Te15  1  0.49877150  0.00717050  0.00328600  1
  O  O16  1  0.59970500  0.25587000  0.11900800  1
  O  O17  1  0.81611000  0.90184000  0.59151100  1
  O  O18  1  0.92591850  0.71962550  0.84179300  1
  O  O19  1  0.89657850  0.37527650  0.58225500  1
  O  O20  1  0.89745300  0.74100000  0.38270800  1
  O  O21  1  0.81611000  0.09816000  0.09151100  1
  O  O22  1  0.10746950  0.40205350  0.91902900  1
  O  O23  1  0.92591850  0.28037450  0.34179300  1
  O  O24  1  0.07607500  0.71689000  0.65693300  1
  O  O25  1  0.89657850  0.62472350  0.08225500  1
  O  O26  1  0.18441950  0.89585950  0.90368000  1
  O  O27  1  0.09970500  0.24413000  0.61900800  1
  O  O28  1  0.10746950  0.59794650  0.41902900  1
  O  O29  1  0.07607500  0.28311000  0.15693300  1
  O  O30  1  0.18441950  0.10414050  0.40368000  1
  O  O31  1  0.39745300  0.75900000  0.88270800  1
  O  O32  1  0.09970500  0.75587000  0.11900800  1
  O  O33  1  0.31611000  0.40184000  0.59151100  1
  O  O34  1  0.42591850  0.21962550  0.84179300  1
  O  O35  1  0.39657850  0.87527650  0.58225500  1
  O  O36  1  0.39745300  0.24100000  0.38270800  1
  O  O37  1  0.31611000  0.59816000  0.09151100  1
  O  O38  1  0.60746950  0.90205350  0.91902900  1
  O  O39  1  0.42591850  0.78037450  0.34179300  1
  O  O40  1  0.57607500  0.21689000  0.65693300  1
  O  O41  1  0.39657850  0.12472350  0.08225500  1
  O  O42  1  0.68441950  0.39585950  0.90368000  1
  O  O43  1  0.59970500  0.74413000  0.61900800  1
  O  O44  1  0.60746950  0.09794650  0.41902900  1
  O  O45  1  0.57607500  0.78311000  0.15693300  1
  O  O46  1  0.68441950  0.60414050  0.40368000  1
  O  O47  1  0.89745300  0.25900000  0.88270800  1
