# generated using pymatgen
data_Mn6O5F7
_symmetry_space_group_name_H-M   'P 1'
_cell_length_a   5.24929300
_cell_length_b   5.50112058
_cell_length_c   14.82292416
_cell_angle_alpha   88.52337831
_cell_angle_beta   83.44387322
_cell_angle_gamma   89.69571580
_symmetry_Int_Tables_number   1
_chemical_formula_structural   Mn6O5F7
_chemical_formula_sum   'Mn12 O10 F14'
_cell_volume   425.09988235
_cell_formula_units_Z   2
loop_
 _symmetry_equiv_pos_site_id
 _symmetry_equiv_pos_as_xyz
  1  'x, y, z'
loop_
 _atom_site_type_symbol
 _atom_site_label
 _atom_site_symmetry_multiplicity
 _atom_site_fract_x
 _atom_site_fract_y
 _atom_site_fract_z
 _atom_site_occupancy
  Mn  Mn0  1  0.95932700  0.09359700  0.99919500  1
  Mn  Mn1  1  0.49546900  0.84752500  0.83393600  1
  Mn  Mn2  1  0.04042200  0.11909000  0.67253500  1
  Mn  Mn3  1  0.48505400  0.92786600  0.49282000  1
  Mn  Mn4  1  0.94194200  0.02914400  0.32737100  1
  Mn  Mn5  1  0.50485600  0.10847600  0.15798500  1
  Mn  Mn6  1  0.99181800  0.54556200  0.83358600  1
  Mn  Mn7  1  0.44163700  0.39936700  0.98932900  1
  Mn  Mn8  1  0.54036200  0.42670500  0.33602600  1
  Mn  Mn9  1  0.08410600  0.49209100  0.50296400  1
  Mn  Mn10  1  0.54247900  0.44368300  0.67147900  1
  Mn  Mn11  1  0.97527700  0.51663700  0.15653800  1
  O  O12  1  0.25606300  0.17957600  0.07658900  1
  O  O13  1  0.74833700  0.23204600  0.24155200  1
  O  O14  1  0.13126400  0.34830300  0.92721100  1
  O  O15  1  0.84287600  0.36873900  0.73612900  1
  O  O16  1  0.67980300  0.16569600  0.40620300  1
  O  O17  1  0.72665700  0.31558900  0.06770300  1
  O  O18  1  0.26402800  0.34007600  0.59989100  1
  O  O19  1  0.38271800  0.60911800  0.43595200  1
  O  O20  1  0.33083600  0.60850800  0.76790700  1
  O  O21  1  0.65750700  0.60194200  0.90121100  1
  F  F22  1  0.37025800  0.09687000  0.74964300  1
  F  F23  1  0.63390400  0.08550700  0.91327900  1
  F  F24  1  0.17202900  0.15201400  0.42195000  1
  F  F25  1  0.78452900  0.30128100  0.57006200  1
  F  F26  1  0.24866300  0.41978600  0.25587800  1
  F  F27  1  0.28956000  0.65894900  0.07956800  1
  F  F28  1  0.64712800  0.76255200  0.59994100  1
  F  F29  1  0.73782700  0.71562900  0.26302600  1
  F  F30  1  0.15128300  0.86713900  0.58627200  1
  F  F31  1  0.13401600  0.85746100  0.91559000  1
  F  F32  1  0.24475700  0.93680900  0.24465200  1
  F  F33  1  0.89651100  0.70142300  0.42406200  1
  F  F34  1  0.79723700  0.85382200  0.08548600  1
  F  F35  1  0.86946100  0.87142200  0.75647600  1
