# generated using pymatgen
data_K2Sn2Se5
_symmetry_space_group_name_H-M   'P 1'
_cell_length_a   11.82286200
_cell_length_b   8.45487600
_cell_length_c   12.09066312
_cell_angle_alpha   90.00000000
_cell_angle_beta   107.92659804
_cell_angle_gamma   90.00000000
_symmetry_Int_Tables_number   1
_chemical_formula_structural   K2Sn2Se5
_chemical_formula_sum   'K8 Sn8 Se20'
_cell_volume   1149.91752584
_cell_formula_units_Z   4
loop_
 _symmetry_equiv_pos_site_id
 _symmetry_equiv_pos_as_xyz
  1  'x, y, z'
loop_
 _atom_site_type_symbol
 _atom_site_label
 _atom_site_symmetry_multiplicity
 _atom_site_fract_x
 _atom_site_fract_y
 _atom_site_fract_z
 _atom_site_occupancy
  K  K0  1  0.23226750  0.32769150  0.31918400  1
  K  K1  1  0.76773250  0.32769150  0.18081600  1
  K  K2  1  0.76773250  0.67230850  0.68081600  1
  K  K3  1  0.23226750  0.67230850  0.81918400  1
  K  K4  1  0.73226750  0.82769150  0.31918400  1
  K  K5  1  0.26773250  0.82769150  0.18081600  1
  K  K6  1  0.26773250  0.17230850  0.68081600  1
  K  K7  1  0.73226750  0.17230850  0.81918400  1
  Sn  Sn8  1  0.90411050  0.84917750  0.05752500  1
  Sn  Sn9  1  0.90411050  0.15082250  0.55752500  1
  Sn  Sn10  1  0.09588950  0.15082250  0.94247500  1
  Sn  Sn11  1  0.09588950  0.84917750  0.44247500  1
  Sn  Sn12  1  0.40411050  0.34917750  0.05752500  1
  Sn  Sn13  1  0.40411050  0.65082250  0.55752500  1
  Sn  Sn14  1  0.59588950  0.65082250  0.94247500  1
  Sn  Sn15  1  0.59588950  0.34917750  0.44247500  1
  Se  Se16  1  0.00000000  0.31560700  0.75000000  1
  Se  Se17  1  0.00000000  0.68439300  0.25000000  1
  Se  Se18  1  0.19370000  0.54906000  0.53571100  1
  Se  Se19  1  0.01512550  0.86324650  0.62029700  1
  Se  Se20  1  0.80630000  0.54906000  0.96428900  1
  Se  Se21  1  0.80630000  0.45094000  0.46428900  1
  Se  Se22  1  0.19370000  0.45094000  0.03571100  1
  Se  Se23  1  0.98487450  0.13675350  0.37970300  1
  Se  Se24  1  0.01512550  0.13675350  0.12029700  1
  Se  Se25  1  0.98487450  0.86324650  0.87970300  1
  Se  Se26  1  0.50000000  0.81560700  0.75000000  1
  Se  Se27  1  0.50000000  0.18439300  0.25000000  1
  Se  Se28  1  0.69370000  0.04906000  0.53571100  1
  Se  Se29  1  0.51512550  0.36324650  0.62029700  1
  Se  Se30  1  0.30630000  0.04906000  0.96428900  1
  Se  Se31  1  0.30630000  0.95094000  0.46428900  1
  Se  Se32  1  0.69370000  0.95094000  0.03571100  1
  Se  Se33  1  0.48487450  0.63675350  0.37970300  1
  Se  Se34  1  0.51512550  0.63675350  0.12029700  1
  Se  Se35  1  0.48487450  0.36324650  0.87970300  1
