# generated using pymatgen
data_Na2AgAs
_symmetry_space_group_name_H-M   'P 1'
_cell_length_a   7.41561200
_cell_length_b   8.90600200
_cell_length_c   5.70619800
_cell_angle_alpha   90.00000000
_cell_angle_beta   90.00000000
_cell_angle_gamma   90.00000000
_symmetry_Int_Tables_number   1
_chemical_formula_structural   Na2AgAs
_chemical_formula_sum   'Na8 Ag4 As4'
_cell_volume   376.85703256
_cell_formula_units_Z   4
loop_
 _symmetry_equiv_pos_site_id
 _symmetry_equiv_pos_as_xyz
  1  'x, y, z'
loop_
 _atom_site_type_symbol
 _atom_site_label
 _atom_site_symmetry_multiplicity
 _atom_site_fract_x
 _atom_site_fract_y
 _atom_site_fract_z
 _atom_site_occupancy
  Na  Na0  1  0.35290150  0.67790350  0.25000000  1
  Na  Na1  1  0.64709850  0.32209650  0.75000000  1
  Na  Na2  1  0.35290150  0.32209650  0.25000000  1
  Na  Na3  1  0.64709850  0.67790350  0.75000000  1
  Na  Na4  1  0.85290150  0.17790350  0.25000000  1
  Na  Na5  1  0.14709850  0.82209650  0.75000000  1
  Na  Na6  1  0.85290150  0.82209650  0.25000000  1
  Na  Na7  1  0.14709850  0.17790350  0.75000000  1
  Ag  Ag8  1  0.50000000  0.00000000  0.50000000  1
  Ag  Ag9  1  0.50000000  0.00000000  0.00000000  1
  Ag  Ag10  1  0.00000000  0.50000000  0.50000000  1
  Ag  Ag11  1  0.00000000  0.50000000  0.00000000  1
  As  As12  1  0.78797900  0.00000000  0.75000000  1
  As  As13  1  0.21202100  0.00000000  0.25000000  1
  As  As14  1  0.28797900  0.50000000  0.75000000  1
  As  As15  1  0.71202100  0.50000000  0.25000000  1
