# generated using pymatgen
data_LiSb(TeO4)3
_symmetry_space_group_name_H-M   'P 1'
_cell_length_a   4.90685500
_cell_length_b   8.55636300
_cell_length_c   5.23705670
_cell_angle_alpha   90.00000000
_cell_angle_beta   90.56286261
_cell_angle_gamma   90.00000000
_symmetry_Int_Tables_number   1
_chemical_formula_structural   LiSb(TeO4)3
_chemical_formula_sum   'Li1 Sb1 Te3 O12'
_cell_volume   219.86633913
_cell_formula_units_Z   1
loop_
 _symmetry_equiv_pos_site_id
 _symmetry_equiv_pos_as_xyz
  1  'x, y, z'
loop_
 _atom_site_type_symbol
 _atom_site_label
 _atom_site_symmetry_multiplicity
 _atom_site_fract_x
 _atom_site_fract_y
 _atom_site_fract_z
 _atom_site_occupancy
  Li  Li0  1  0.00000000  0.28084400  0.00000000  1
  Sb  Sb1  1  0.00000000  0.89693200  0.00000000  1
  Te  Te2  1  0.50000000  0.59006900  0.00000000  1
  Te  Te3  1  0.00000000  0.07559600  0.50000000  1
  Te  Te4  1  0.50000000  0.39719200  0.50000000  1
  O  O5  1  0.74660800  0.73886400  0.14410600  1
  O  O6  1  0.71335500  0.41775200  0.18255200  1
  O  O7  1  0.79735900  0.07978200  0.18239400  1
  O  O8  1  0.28797800  0.56056700  0.31304100  1
  O  O9  1  0.21721800  0.91910800  0.32262400  1
  O  O10  1  0.24175300  0.24552200  0.35730000  1
  O  O11  1  0.75824700  0.24552200  0.64270000  1
  O  O12  1  0.78278200  0.91910800  0.67737600  1
  O  O13  1  0.71202200  0.56056700  0.68695900  1
  O  O14  1  0.20264100  0.07978200  0.81760600  1
  O  O15  1  0.28664500  0.41775200  0.81744800  1
  O  O16  1  0.25339200  0.73886400  0.85589400  1
