# generated using pymatgen
data_Te4Mo3
_symmetry_space_group_name_H-M   'P 1'
_cell_length_a   10.34178522
_cell_length_b   10.34178522
_cell_length_c   11.96927735
_cell_angle_alpha   90.00000000
_cell_angle_beta   90.00000000
_cell_angle_gamma   120.00000000
_symmetry_Int_Tables_number   1
_chemical_formula_structural   Te4Mo3
_chemical_formula_sum   'Te24 Mo18'
_cell_volume   1108.63756622
_cell_formula_units_Z   6
loop_
 _symmetry_equiv_pos_site_id
 _symmetry_equiv_pos_as_xyz
  1  'x, y, z'
loop_
 _atom_site_type_symbol
 _atom_site_label
 _atom_site_symmetry_multiplicity
 _atom_site_fract_x
 _atom_site_fract_y
 _atom_site_fract_z
 _atom_site_occupancy
  Te  Te0  1  0.00000000  0.00000000  0.71445700  1
  Te  Te1  1  0.00000000  0.00000000  0.28554300  1
  Te  Te2  1  0.69848867  0.66091233  0.41948133  1
  Te  Te3  1  0.33908767  0.03757633  0.41948133  1
  Te  Te4  1  0.96242367  0.30151133  0.41948133  1
  Te  Te5  1  0.30151133  0.33908767  0.58051867  1
  Te  Te6  1  0.66091233  0.96242367  0.58051867  1
  Te  Te7  1  0.03757633  0.69848867  0.58051867  1
  Te  Te8  1  0.66666667  0.33333333  0.04779033  1
  Te  Te9  1  0.66666667  0.33333333  0.61887633  1
  Te  Te10  1  0.36515533  0.99424567  0.75281467  1
  Te  Te11  1  0.00575433  0.37090967  0.75281467  1
  Te  Te12  1  0.62909033  0.63484467  0.75281467  1
  Te  Te13  1  0.96817800  0.67242100  0.91385200  1
  Te  Te14  1  0.32757900  0.29575700  0.91385200  1
  Te  Te15  1  0.70424300  0.03182200  0.91385200  1
  Te  Te16  1  0.33333333  0.66666667  0.38112367  1
  Te  Te17  1  0.33333333  0.66666667  0.95220967  1
  Te  Te18  1  0.03182200  0.32757900  0.08614800  1
  Te  Te19  1  0.67242100  0.70424300  0.08614800  1
  Te  Te20  1  0.29575700  0.96817800  0.08614800  1
  Te  Te21  1  0.63484467  0.00575433  0.24718533  1
  Te  Te22  1  0.99424567  0.62909033  0.24718533  1
  Te  Te23  1  0.37090967  0.36515533  0.24718533  1
  Mo  Mo24  1  0.47610167  0.65161033  0.57065933  1
  Mo  Mo25  1  0.34838967  0.82449133  0.57065933  1
  Mo  Mo26  1  0.17550867  0.52389833  0.57065933  1
  Mo  Mo27  1  0.52389833  0.34838967  0.42934067  1
  Mo  Mo28  1  0.65161033  0.17550867  0.42934067  1
  Mo  Mo29  1  0.82449133  0.47610167  0.42934067  1
  Mo  Mo30  1  0.14276833  0.98494367  0.90399267  1
  Mo  Mo31  1  0.01505633  0.15782467  0.90399267  1
  Mo  Mo32  1  0.84217533  0.85723167  0.90399267  1
  Mo  Mo33  1  0.19056500  0.68172300  0.76267400  1
  Mo  Mo34  1  0.31827700  0.50884200  0.76267400  1
  Mo  Mo35  1  0.49115800  0.80943500  0.76267400  1
  Mo  Mo36  1  0.80943500  0.31827700  0.23732600  1
  Mo  Mo37  1  0.68172300  0.49115800  0.23732600  1
  Mo  Mo38  1  0.50884200  0.19056500  0.23732600  1
  Mo  Mo39  1  0.85723167  0.01505633  0.09600733  1
  Mo  Mo40  1  0.98494367  0.84217533  0.09600733  1
  Mo  Mo41  1  0.15782467  0.14276833  0.09600733  1
