# generated using pymatgen
data_NaAcTe2
_symmetry_space_group_name_H-M   'P 1'
_cell_length_a   8.03647000
_cell_length_b   8.03647000
_cell_length_c   8.03647000
_cell_angle_alpha   90.00000000
_cell_angle_beta   90.00000000
_cell_angle_gamma   90.00000000
_symmetry_Int_Tables_number   1
_chemical_formula_structural   NaAcTe2
_chemical_formula_sum   'Na4 Ac4 Te8'
_cell_volume   519.03420997
_cell_formula_units_Z   4
loop_
 _symmetry_equiv_pos_site_id
 _symmetry_equiv_pos_as_xyz
  1  'x, y, z'
loop_
 _atom_site_type_symbol
 _atom_site_label
 _atom_site_symmetry_multiplicity
 _atom_site_fract_x
 _atom_site_fract_y
 _atom_site_fract_z
 _atom_site_occupancy
  Na  Na0  1  0.00000000  0.00000000  0.00000000  1
  Na  Na1  1  0.00000000  0.50000000  0.50000000  1
  Na  Na2  1  0.50000000  0.00000000  0.50000000  1
  Na  Na3  1  0.50000000  0.50000000  0.00000000  1
  Ac  Ac4  1  0.50000000  0.00000000  0.00000000  1
  Ac  Ac5  1  0.50000000  0.50000000  0.50000000  1
  Ac  Ac6  1  0.00000000  0.00000000  0.50000000  1
  Ac  Ac7  1  0.00000000  0.50000000  0.00000000  1
  Te  Te8  1  0.25000000  0.75000000  0.75000000  1
  Te  Te9  1  0.25000000  0.25000000  0.75000000  1
  Te  Te10  1  0.25000000  0.25000000  0.25000000  1
  Te  Te11  1  0.25000000  0.75000000  0.25000000  1
  Te  Te12  1  0.75000000  0.75000000  0.25000000  1
  Te  Te13  1  0.75000000  0.25000000  0.25000000  1
  Te  Te14  1  0.75000000  0.25000000  0.75000000  1
  Te  Te15  1  0.75000000  0.75000000  0.75000000  1
