# generated using pymatgen
data_NaNb6O15F
_symmetry_space_group_name_H-M   'P 1'
_cell_length_a   10.50965400
_cell_length_b   14.96537200
_cell_length_c   3.95245100
_cell_angle_alpha   90.00000000
_cell_angle_beta   90.00000000
_cell_angle_gamma   90.00000000
_symmetry_Int_Tables_number   1
_chemical_formula_structural   NaNb6O15F
_chemical_formula_sum   'Na2 Nb12 O30 F2'
_cell_volume   621.64497816
_cell_formula_units_Z   2
loop_
 _symmetry_equiv_pos_site_id
 _symmetry_equiv_pos_as_xyz
  1  'x, y, z'
loop_
 _atom_site_type_symbol
 _atom_site_label
 _atom_site_symmetry_multiplicity
 _atom_site_fract_x
 _atom_site_fract_y
 _atom_site_fract_z
 _atom_site_occupancy
  Na  Na0  1  0.50000000  0.09566900  0.50000000  1
  Na  Na1  1  0.00000000  0.59566900  0.50000000  1
  Nb  Nb2  1  0.31657550  0.68888350  0.00000000  1
  Nb  Nb3  1  0.67960400  0.94287500  0.00000000  1
  Nb  Nb4  1  0.32039600  0.94287500  0.00000000  1
  Nb  Nb5  1  0.50000000  0.28235900  0.00000000  1
  Nb  Nb6  1  0.50000000  0.50080900  0.00000000  1
  Nb  Nb7  1  0.68342450  0.68888350  0.00000000  1
  Nb  Nb8  1  0.81657550  0.18888350  0.00000000  1
  Nb  Nb9  1  0.17960400  0.44287500  0.00000000  1
  Nb  Nb10  1  0.82039600  0.44287500  0.00000000  1
  Nb  Nb11  1  0.00000000  0.78235900  0.00000000  1
  Nb  Nb12  1  0.00000000  0.00080900  0.00000000  1
  Nb  Nb13  1  0.18342450  0.18888350  0.00000000  1
  O  O14  1  0.67571150  0.68512950  0.50000000  1
  O  O15  1  0.50000000  0.98676900  0.00000000  1
  O  O16  1  0.50000000  0.63691300  0.00000000  1
  O  O17  1  0.65121000  0.81704900  0.00000000  1
  O  O18  1  0.34879000  0.81704900  0.00000000  1
  O  O19  1  0.18711800  0.04398700  0.00000000  1
  O  O20  1  0.81288200  0.04398700  0.00000000  1
  O  O21  1  0.50000000  0.27774000  0.50000000  1
  O  O22  1  0.32402900  0.95983300  0.50000000  1
  O  O23  1  0.67597100  0.95983300  0.50000000  1
  O  O24  1  0.32428850  0.68512950  0.50000000  1
  O  O25  1  0.63293200  0.18688700  0.00000000  1
  O  O26  1  0.11874500  0.89118400  0.00000000  1
  O  O27  1  0.88125500  0.89118400  0.00000000  1
  O  O28  1  0.36706800  0.18688700  0.00000000  1
  O  O29  1  0.17571150  0.18512950  0.50000000  1
  O  O30  1  0.00000000  0.48676900  0.00000000  1
  O  O31  1  0.00000000  0.13691300  0.00000000  1
  O  O32  1  0.15121000  0.31704900  0.00000000  1
  O  O33  1  0.84879000  0.31704900  0.00000000  1
  O  O34  1  0.68711800  0.54398700  0.00000000  1
  O  O35  1  0.31288200  0.54398700  0.00000000  1
  O  O36  1  0.00000000  0.77774000  0.50000000  1
  O  O37  1  0.82402900  0.45983300  0.50000000  1
  O  O38  1  0.17597100  0.45983300  0.50000000  1
  O  O39  1  0.82428850  0.18512950  0.50000000  1
  O  O40  1  0.13293200  0.68688700  0.00000000  1
  O  O41  1  0.61874500  0.39118400  0.00000000  1
  O  O42  1  0.38125500  0.39118400  0.00000000  1
  O  O43  1  0.86706800  0.68688700  0.00000000  1
  F  F44  1  0.50000000  0.50008700  0.50000000  1
  F  F45  1  0.00000000  0.00008700  0.50000000  1
