# generated using pymatgen
data_H16RhN5(Cl2O)3
_symmetry_space_group_name_H-M   'P 1'
_cell_length_a   6.92862202
_cell_length_b   6.92862202
_cell_length_c   25.31286161
_cell_angle_alpha   90.00000000
_cell_angle_beta   90.00000000
_cell_angle_gamma   120.00000000
_symmetry_Int_Tables_number   1
_chemical_formula_structural   H16RhN5(Cl2O)3
_chemical_formula_sum   'H48 Rh3 N15 Cl18 O9'
_cell_volume   1052.36310979
_cell_formula_units_Z   3
loop_
 _symmetry_equiv_pos_site_id
 _symmetry_equiv_pos_as_xyz
  1  'x, y, z'
loop_
 _atom_site_type_symbol
 _atom_site_label
 _atom_site_symmetry_multiplicity
 _atom_site_fract_x
 _atom_site_fract_y
 _atom_site_fract_z
 _atom_site_occupancy
  H  H0  1  0.33333333  0.66666667  0.32989767  1
  H  H1  1  0.33333333  0.66666667  0.00343567  1
  H  H2  1  0.33377700  0.52421500  0.05671100  1
  H  H3  1  0.19043800  0.66622300  0.05671100  1
  H  H4  1  0.47578500  0.80956200  0.05671100  1
  H  H5  1  0.00000000  0.00000000  0.12647000  1
  H  H6  1  0.57482367  0.17025933  0.15303233  1
  H  H7  1  0.59543567  0.42517633  0.15303233  1
  H  H8  1  0.82974067  0.40456433  0.15303233  1
  H  H9  1  0.09184300  0.92876900  0.18030100  1
  H  H10  1  0.83692600  0.90815700  0.18030100  1
  H  H11  1  0.07123100  0.16307400  0.18030100  1
  H  H12  1  0.66666667  0.33333333  0.20686333  1
  H  H13  1  0.33288967  0.52377133  0.27662233  1
  H  H14  1  0.19088167  0.66711033  0.27662233  1
  H  H15  1  0.47622867  0.80911833  0.27662233  1
  H  H16  1  0.00000000  0.00000000  0.66323100  1
  H  H17  1  1.00000000  0.00000000  0.33676900  1
  H  H18  1  0.00044367  0.85754833  0.39004433  1
  H  H19  1  0.85710467  0.99955633  0.39004433  1
  H  H20  1  0.14245167  0.14289533  0.39004433  1
  H  H21  1  0.66666667  0.33333333  0.45980333  1
  H  H22  1  0.24149033  0.50359267  0.48636567  1
  H  H23  1  0.26210233  0.75850967  0.48636567  1
  H  H24  1  0.49640733  0.73789767  0.48636567  1
  H  H25  1  0.75850967  0.26210233  0.51363433  1
  H  H26  1  0.50359267  0.24149033  0.51363433  1
  H  H27  1  0.73789767  0.49640733  0.51363433  1
  H  H28  1  0.33333333  0.66666667  0.54019667  1
  H  H29  1  0.99955633  0.85710467  0.60995567  1
  H  H30  1  0.85754833  0.00044367  0.60995567  1
  H  H31  1  0.14289533  0.14245167  0.60995567  1
  H  H32  1  0.66666667  0.33333333  0.99656433  1
  H  H33  1  0.66666667  0.33333333  0.67010233  1
  H  H34  1  0.66711033  0.19088167  0.72337767  1
  H  H35  1  0.52377133  0.33288967  0.72337767  1
  H  H36  1  0.80911833  0.47622867  0.72337767  1
  H  H37  1  0.33333333  0.66666667  0.79313667  1
  H  H38  1  0.90815700  0.83692600  0.81969900  1
  H  H39  1  0.92876900  0.09184300  0.81969900  1
  H  H40  1  0.16307400  0.07123100  0.81969900  1
  H  H41  1  0.42517633  0.59543567  0.84696767  1
  H  H42  1  0.17025933  0.57482367  0.84696767  1
  H  H43  1  0.40456433  0.82974067  0.84696767  1
  H  H44  1  0.00000000  0.00000000  0.87353000  1
  H  H45  1  0.66622300  0.19043800  0.94328900  1
  H  H46  1  0.52421500  0.33377700  0.94328900  1
  H  H47  1  0.80956200  0.47578500  0.94328900  1
  Rh  Rh48  1  0.00000000  0.00000000  0.00000000  1
  Rh  Rh49  1  0.66666667  0.33333333  0.33333333  1
  Rh  Rh50  1  0.33333333  0.66666667  0.66666667  1
  N  N51  1  0.33333333  0.66666667  0.04437867  1
  N  N52  1  0.66666667  0.33333333  0.16593833  1
  N  N53  1  0.33333333  0.66666667  0.16666667  1
  N  N54  1  0.00000000  0.00000000  0.16739500  1
  N  N55  1  0.33333333  0.66666667  0.28895467  1
  N  N56  1  0.00000000  0.00000000  0.37771200  1
  N  N57  1  0.33333333  0.66666667  0.49927167  1
  N  N58  1  0.00000000  0.00000000  0.50000000  1
  N  N59  1  0.66666667  0.33333333  0.50072833  1
  N  N60  1  1.00000000  0.00000000  0.62228800  1
  N  N61  1  0.66666667  0.33333333  0.71104533  1
  N  N62  1  0.00000000  0.00000000  0.83260500  1
  N  N63  1  0.66666667  0.33333333  0.83333333  1
  N  N64  1  0.33333333  0.66666667  0.83406167  1
  N  N65  1  0.66666667  0.33333333  0.95562133  1
  Cl  Cl66  1  0.31803067  0.17182333  0.05712033  1
  Cl  Cl67  1  0.82817667  0.14620733  0.05712033  1
  Cl  Cl68  1  0.85379267  0.68196933  0.05712033  1
  Cl  Cl69  1  0.83849000  0.65136400  0.27621300  1
  Cl  Cl70  1  0.34863600  0.18712600  0.27621300  1
  Cl  Cl71  1  0.81287400  0.16151000  0.27621300  1
  Cl  Cl72  1  0.98469733  0.50515667  0.39045367  1
  Cl  Cl73  1  0.49484333  0.47954067  0.39045367  1
  Cl  Cl74  1  0.52045933  0.01530267  0.39045367  1
  Cl  Cl75  1  0.50515667  0.98469733  0.60954633  1
  Cl  Cl76  1  0.01530267  0.52045933  0.60954633  1
  Cl  Cl77  1  0.47954067  0.49484333  0.60954633  1
  Cl  Cl78  1  0.65136400  0.83849000  0.72378700  1
  Cl  Cl79  1  0.16151000  0.81287400  0.72378700  1
  Cl  Cl80  1  0.18712600  0.34863600  0.72378700  1
  Cl  Cl81  1  0.17182333  0.31803067  0.94287967  1
  Cl  Cl82  1  0.68196933  0.85379267  0.94287967  1
  Cl  Cl83  1  0.14620733  0.82817667  0.94287967  1
  O  O84  1  0.33333333  0.85017767  0.16666667  1
  O  O85  1  0.51684433  0.66666667  0.16666667  1
  O  O86  1  0.14982233  0.48315567  0.16666667  1
  O  O87  1  0.00000000  0.18351100  0.50000000  1
  O  O88  1  0.18351100  0.00000000  0.50000000  1
  O  O89  1  0.81648900  0.81648900  0.50000000  1
  O  O90  1  0.66666667  0.51684433  0.83333333  1
  O  O91  1  0.85017767  0.33333333  0.83333333  1
  O  O92  1  0.48315567  0.14982233  0.83333333  1
