# generated using pymatgen
data_Ba3Co(CN)3
_symmetry_space_group_name_H-M   'P 1'
_cell_length_a   9.11995027
_cell_length_b   9.11995027
_cell_length_c   5.82949600
_cell_angle_alpha   90.00000000
_cell_angle_beta   90.00000000
_cell_angle_gamma   120.00000000
_symmetry_Int_Tables_number   1
_chemical_formula_structural   Ba3Co(CN)3
_chemical_formula_sum   'Ba6 Co2 C6 N6'
_cell_volume   419.90068246
_cell_formula_units_Z   2
loop_
 _symmetry_equiv_pos_site_id
 _symmetry_equiv_pos_as_xyz
  1  'x, y, z'
loop_
 _atom_site_type_symbol
 _atom_site_label
 _atom_site_symmetry_multiplicity
 _atom_site_fract_x
 _atom_site_fract_y
 _atom_site_fract_z
 _atom_site_occupancy
  Ba  Ba0  1  0.62167800  0.69145600  0.25000000  1
  Ba  Ba1  1  0.37832200  0.30854400  0.75000000  1
  Ba  Ba2  1  0.30854400  0.93022200  0.25000000  1
  Ba  Ba3  1  0.06977800  0.37832200  0.25000000  1
  Ba  Ba4  1  0.93022200  0.62167800  0.75000000  1
  Ba  Ba5  1  0.69145600  0.06977800  0.75000000  1
  Co  Co6  1  0.66666667  0.33333333  0.25000000  1
  Co  Co7  1  0.33333333  0.66666667  0.75000000  1
  C  C8  1  0.45808400  0.30265000  0.25000000  1
  C  C9  1  0.69735000  0.15543400  0.25000000  1
  C  C10  1  0.30265000  0.84456600  0.75000000  1
  C  C11  1  0.54191600  0.69735000  0.75000000  1
  C  C12  1  0.84456600  0.54191600  0.25000000  1
  C  C13  1  0.15543400  0.45808400  0.75000000  1
  N  N14  1  0.31071000  0.27722200  0.25000000  1
  N  N15  1  0.68929000  0.72277800  0.75000000  1
  N  N16  1  0.03348800  0.31071000  0.75000000  1
  N  N17  1  0.72277800  0.03348800  0.25000000  1
  N  N18  1  0.27722200  0.96651200  0.75000000  1
  N  N19  1  0.96651200  0.68929000  0.25000000  1
