# generated using pymatgen
data_B2S3
_symmetry_space_group_name_H-M   'P 1'
_cell_length_a   5.45657184
_cell_length_b   5.45657184
_cell_length_c   23.28635432
_cell_angle_alpha   90.00000000
_cell_angle_beta   90.00000000
_cell_angle_gamma   120.00000000
_symmetry_Int_Tables_number   1
_chemical_formula_structural   B2S3
_chemical_formula_sum   'B12 S18'
_cell_volume   600.44313987
_cell_formula_units_Z   6
loop_
 _symmetry_equiv_pos_site_id
 _symmetry_equiv_pos_as_xyz
  1  'x, y, z'
loop_
 _atom_site_type_symbol
 _atom_site_label
 _atom_site_symmetry_multiplicity
 _atom_site_fract_x
 _atom_site_fract_y
 _atom_site_fract_z
 _atom_site_occupancy
  B  B0  1  0.66666667  0.33333333  0.24974533  1
  B  B1  1  0.33333333  0.66666667  0.25025467  1
  B  B2  1  0.33333333  0.66666667  0.08307867  1
  B  B3  1  0.00000000  0.00000000  0.08358800  1
  B  B4  1  0.33333333  0.66666667  0.58307867  1
  B  B5  1  0.00000000  0.00000000  0.58358800  1
  B  B6  1  0.00000000  0.00000000  0.41641200  1
  B  B7  1  0.66666667  0.33333333  0.41692133  1
  B  B8  1  0.00000000  0.00000000  0.91641200  1
  B  B9  1  0.66666667  0.33333333  0.91692133  1
  B  B10  1  0.66666667  0.33333333  0.74974533  1
  B  B11  1  0.33333333  0.66666667  0.75025467  1
  S  S12  1  0.00000000  0.33166500  0.25000000  1
  S  S13  1  0.66833500  0.66833500  0.25000000  1
  S  S14  1  0.33166500  0.00000000  0.25000000  1
  S  S15  1  0.33500167  0.33333333  0.08333333  1
  S  S16  1  0.99833167  0.66499833  0.08333333  1
  S  S17  1  0.66666667  0.00166833  0.08333333  1
  S  S18  1  0.66666667  0.66499833  0.58333333  1
  S  S19  1  0.33500167  0.00166833  0.58333333  1
  S  S20  1  0.99833167  0.33333333  0.58333333  1
  S  S21  1  0.00166833  0.66666667  0.41666667  1
  S  S22  1  0.66499833  0.99833167  0.41666667  1
  S  S23  1  0.33333333  0.33500167  0.41666667  1
  S  S24  1  0.33333333  0.99833167  0.91666667  1
  S  S25  1  0.00166833  0.33500167  0.91666667  1
  S  S26  1  0.66499833  0.66666667  0.91666667  1
  S  S27  1  0.66833500  0.00000000  0.75000000  1
  S  S28  1  0.33166500  0.33166500  0.75000000  1
  S  S29  1  0.00000000  0.66833500  0.75000000  1
