# generated using pymatgen
data_Cs2Sr2(CO3)3
_symmetry_space_group_name_H-M   'P 1'
_cell_length_a   10.17449400
_cell_length_b   10.17449400
_cell_length_c   10.17449400
_cell_angle_alpha   90.00000000
_cell_angle_beta   90.00000000
_cell_angle_gamma   90.00000000
_symmetry_Int_Tables_number   1
_chemical_formula_structural   Cs2Sr2(CO3)3
_chemical_formula_sum   'Cs8 Sr8 C12 O36'
_cell_volume   1053.26695770
_cell_formula_units_Z   4
loop_
 _symmetry_equiv_pos_site_id
 _symmetry_equiv_pos_as_xyz
  1  'x, y, z'
loop_
 _atom_site_type_symbol
 _atom_site_label
 _atom_site_symmetry_multiplicity
 _atom_site_fract_x
 _atom_site_fract_y
 _atom_site_fract_z
 _atom_site_occupancy
  Cs  Cs0  1  0.44182850  0.44182850  0.44182850  1
  Cs  Cs1  1  0.05817150  0.55817150  0.94182850  1
  Cs  Cs2  1  0.94182850  0.05817150  0.55817150  1
  Cs  Cs3  1  0.55817150  0.94182850  0.05817150  1
  Cs  Cs4  1  0.94182850  0.94182850  0.94182850  1
  Cs  Cs5  1  0.55817150  0.05817150  0.44182850  1
  Cs  Cs6  1  0.44182850  0.55817150  0.05817150  1
  Cs  Cs7  1  0.05817150  0.44182850  0.55817150  1
  Sr  Sr8  1  0.20322300  0.20322300  0.20322300  1
  Sr  Sr9  1  0.79677700  0.29677700  0.20322300  1
  Sr  Sr10  1  0.20322300  0.79677700  0.29677700  1
  Sr  Sr11  1  0.29677700  0.20322300  0.79677700  1
  Sr  Sr12  1  0.70322300  0.70322300  0.70322300  1
  Sr  Sr13  1  0.29677700  0.79677700  0.70322300  1
  Sr  Sr14  1  0.70322300  0.29677700  0.79677700  1
  Sr  Sr15  1  0.79677700  0.70322300  0.29677700  1
  C  C16  1  0.25000000  0.08998200  0.50000000  1
  C  C17  1  0.75000000  0.41001800  0.50000000  1
  C  C18  1  0.50000000  0.25000000  0.08998200  1
  C  C19  1  0.08998200  0.50000000  0.25000000  1
  C  C20  1  0.41001800  0.50000000  0.75000000  1
  C  C21  1  0.50000000  0.75000000  0.41001800  1
  C  C22  1  0.75000000  0.58998200  0.00000000  1
  C  C23  1  0.25000000  0.91001800  0.00000000  1
  C  C24  1  0.00000000  0.75000000  0.58998200  1
  C  C25  1  0.58998200  0.00000000  0.75000000  1
  C  C26  1  0.91001800  0.00000000  0.25000000  1
  C  C27  1  0.00000000  0.25000000  0.91001800  1
  O  O28  1  0.25566050  0.02711350  0.38875350  1
  O  O29  1  0.74433950  0.47288650  0.38875350  1
  O  O30  1  0.25566050  0.97288650  0.11124650  1
  O  O31  1  0.24433950  0.02711350  0.61124650  1
  O  O32  1  0.38875350  0.25566050  0.02711350  1
  O  O33  1  0.02711350  0.38875350  0.25566050  1
  O  O34  1  0.61124650  0.24433950  0.02711350  1
  O  O35  1  0.47288650  0.38875350  0.74433950  1
  O  O36  1  0.38875350  0.74433950  0.47288650  1
  O  O37  1  0.97288650  0.11124650  0.25566050  1
  O  O38  1  0.11124650  0.25566050  0.97288650  1
  O  O39  1  0.02711350  0.61124650  0.24433950  1
  O  O40  1  0.25000000  0.21827900  0.50000000  1
  O  O41  1  0.75000000  0.28172100  0.50000000  1
  O  O42  1  0.50000000  0.25000000  0.21827900  1
  O  O43  1  0.21827900  0.50000000  0.25000000  1
  O  O44  1  0.28172100  0.50000000  0.75000000  1
  O  O45  1  0.50000000  0.75000000  0.28172100  1
  O  O46  1  0.75566050  0.52711350  0.88875350  1
  O  O47  1  0.24433950  0.97288650  0.88875350  1
  O  O48  1  0.75566050  0.47288650  0.61124650  1
  O  O49  1  0.74433950  0.52711350  0.11124650  1
  O  O50  1  0.88875350  0.75566050  0.52711350  1
  O  O51  1  0.52711350  0.88875350  0.75566050  1
  O  O52  1  0.11124650  0.74433950  0.52711350  1
  O  O53  1  0.97288650  0.88875350  0.24433950  1
  O  O54  1  0.88875350  0.24433950  0.97288650  1
  O  O55  1  0.47288650  0.61124650  0.75566050  1
  O  O56  1  0.61124650  0.75566050  0.47288650  1
  O  O57  1  0.52711350  0.11124650  0.74433950  1
  O  O58  1  0.75000000  0.71827900  0.00000000  1
  O  O59  1  0.25000000  0.78172100  0.00000000  1
  O  O60  1  0.00000000  0.75000000  0.71827900  1
  O  O61  1  0.71827900  0.00000000  0.75000000  1
  O  O62  1  0.78172100  0.00000000  0.25000000  1
  O  O63  1  0.00000000  0.25000000  0.78172100  1
