# generated using pymatgen
data_LiSiBO4
_symmetry_space_group_name_H-M   'P 1'
_cell_length_a   4.45070000
_cell_length_b   4.45070000
_cell_length_c   6.89717400
_cell_angle_alpha   90.00000000
_cell_angle_beta   90.00000000
_cell_angle_gamma   90.00000000
_symmetry_Int_Tables_number   1
_chemical_formula_structural   LiSiBO4
_chemical_formula_sum   'Li2 Si2 B2 O8'
_cell_volume   136.62426091
_cell_formula_units_Z   2
loop_
 _symmetry_equiv_pos_site_id
 _symmetry_equiv_pos_as_xyz
  1  'x, y, z'
loop_
 _atom_site_type_symbol
 _atom_site_label
 _atom_site_symmetry_multiplicity
 _atom_site_fract_x
 _atom_site_fract_y
 _atom_site_fract_z
 _atom_site_occupancy
  Li  Li0  1  0.50000000  0.50000000  0.00000000  1
  Li  Li1  1  0.00000000  0.00000000  0.50000000  1
  Si  Si2  1  0.00000000  0.00000000  0.00000000  1
  Si  Si3  1  0.50000000  0.50000000  0.50000000  1
  B  B4  1  0.50000000  0.00000000  0.25000000  1
  B  B5  1  0.00000000  0.50000000  0.75000000  1
  O  O6  1  0.65291400  0.77220000  0.37203600  1
  O  O7  1  0.34708600  0.22780000  0.37203600  1
  O  O8  1  0.27220000  0.84708600  0.12796400  1
  O  O9  1  0.72780000  0.15291400  0.12796400  1
  O  O10  1  0.15291400  0.27220000  0.87203600  1
  O  O11  1  0.84708600  0.72780000  0.87203600  1
  O  O12  1  0.77220000  0.34708600  0.62796400  1
  O  O13  1  0.22780000  0.65291400  0.62796400  1
