# generated using pymatgen
data_Li8PtO6
_symmetry_space_group_name_H-M   'P 1'
_cell_length_a   5.48751387
_cell_length_b   5.48751387
_cell_length_c   15.16184299
_cell_angle_alpha   90.00000000
_cell_angle_beta   90.00000000
_cell_angle_gamma   120.00000000
_symmetry_Int_Tables_number   1
_chemical_formula_structural   Li8PtO6
_chemical_formula_sum   'Li24 Pt3 O18'
_cell_volume   395.39747265
_cell_formula_units_Z   3
loop_
 _symmetry_equiv_pos_site_id
 _symmetry_equiv_pos_as_xyz
  1  'x, y, z'
loop_
 _atom_site_type_symbol
 _atom_site_label
 _atom_site_symmetry_multiplicity
 _atom_site_fract_x
 _atom_site_fract_y
 _atom_site_fract_z
 _atom_site_occupancy
  Li  Li0  1  0.33333333  0.66666667  0.00939067  1
  Li  Li1  1  0.68516367  0.98325533  0.21616433  1
  Li  Li2  1  0.29809167  0.31483633  0.21616433  1
  Li  Li3  1  0.01674467  0.70190833  0.21616433  1
  Li  Li4  1  0.98150300  0.35007800  0.11716900  1
  Li  Li5  1  0.36857500  0.01849700  0.11716900  1
  Li  Li6  1  0.33333333  0.66666667  0.32394267  1
  Li  Li7  1  0.64992200  0.63142500  0.11716900  1
  Li  Li8  1  0.00000000  0.00000000  0.34272400  1
  Li  Li9  1  0.35183033  0.31658867  0.54949767  1
  Li  Li10  1  0.96475833  0.64816967  0.54949767  1
  Li  Li11  1  0.68341133  0.03524167  0.54949767  1
  Li  Li12  1  0.64816967  0.68341133  0.45050233  1
  Li  Li13  1  0.03524167  0.35183033  0.45050233  1
  Li  Li14  1  0.00000000  0.00000000  0.65727600  1
  Li  Li15  1  0.31658867  0.96475833  0.45050233  1
  Li  Li16  1  0.66666667  0.33333333  0.67605733  1
  Li  Li17  1  0.01849700  0.64992200  0.88283100  1
  Li  Li18  1  0.63142500  0.98150300  0.88283100  1
  Li  Li19  1  0.35007800  0.36857500  0.88283100  1
  Li  Li20  1  0.31483633  0.01674467  0.78383567  1
  Li  Li21  1  0.70190833  0.68516367  0.78383567  1
  Li  Li22  1  0.66666667  0.33333333  0.99060933  1
  Li  Li23  1  0.98325533  0.29809167  0.78383567  1
  Pt  Pt24  1  0.00000000  0.00000000  0.00000000  1
  Pt  Pt25  1  0.66666667  0.33333333  0.33333333  1
  Pt  Pt26  1  0.33333333  0.66666667  0.66666667  1
  O  O27  1  0.65379233  0.63707567  0.25315267  1
  O  O28  1  0.30374233  0.31661667  0.08018067  1
  O  O29  1  0.01287433  0.69625767  0.08018067  1
  O  O30  1  0.98328333  0.34620767  0.25315267  1
  O  O31  1  0.36292433  0.01671667  0.25315267  1
  O  O32  1  0.68338333  0.98712567  0.08018067  1
  O  O33  1  0.32045900  0.97040900  0.58648600  1
  O  O34  1  0.97040900  0.64995000  0.41351400  1
  O  O35  1  0.67954100  0.02959100  0.41351400  1
  O  O36  1  0.64995000  0.67954100  0.58648600  1
  O  O37  1  0.02959100  0.35005000  0.58648600  1
  O  O38  1  0.35005000  0.32045900  0.41351400  1
  O  O39  1  0.98712567  0.30374233  0.91981933  1
  O  O40  1  0.63707567  0.98328333  0.74684733  1
  O  O41  1  0.34620767  0.36292433  0.74684733  1
  O  O42  1  0.31661667  0.01287433  0.91981933  1
  O  O43  1  0.69625767  0.68338333  0.91981933  1
  O  O44  1  0.01671667  0.65379233  0.74684733  1
