# generated using pymatgen
data_BaMgTe2O7
_symmetry_space_group_name_H-M   'P 1'
_cell_length_a   7.39605800
_cell_length_b   15.46816800
_cell_length_c   5.65639400
_cell_angle_alpha   90.00000000
_cell_angle_beta   90.00000000
_cell_angle_gamma   90.00000000
_symmetry_Int_Tables_number   1
_chemical_formula_structural   BaMgTe2O7
_chemical_formula_sum   'Ba4 Mg4 Te8 O28'
_cell_volume   647.11108817
_cell_formula_units_Z   4
loop_
 _symmetry_equiv_pos_site_id
 _symmetry_equiv_pos_as_xyz
  1  'x, y, z'
loop_
 _atom_site_type_symbol
 _atom_site_label
 _atom_site_symmetry_multiplicity
 _atom_site_fract_x
 _atom_site_fract_y
 _atom_site_fract_z
 _atom_site_occupancy
  Ba  Ba0  1  0.37182850  0.29213550  0.75000000  1
  Ba  Ba1  1  0.87182850  0.20786450  0.25000000  1
  Ba  Ba2  1  0.87182850  0.79213550  0.75000000  1
  Ba  Ba3  1  0.37182850  0.70786450  0.25000000  1
  Mg  Mg4  1  0.85690600  0.38254700  0.75000000  1
  Mg  Mg5  1  0.35690600  0.11745300  0.25000000  1
  Mg  Mg6  1  0.35690600  0.88254700  0.75000000  1
  Mg  Mg7  1  0.85690600  0.61745300  0.25000000  1
  Te  Te8  1  0.12634600  0.42615500  0.25000000  1
  Te  Te9  1  0.61049000  0.42182600  0.25000000  1
  Te  Te10  1  0.11049000  0.07817400  0.75000000  1
  Te  Te11  1  0.62634600  0.07384500  0.75000000  1
  Te  Te12  1  0.62634600  0.92615500  0.25000000  1
  Te  Te13  1  0.11049000  0.92182600  0.25000000  1
  Te  Te14  1  0.61049000  0.57817400  0.75000000  1
  Te  Te15  1  0.12634600  0.57384500  0.75000000  1
  O  O16  1  0.99451800  0.00000000  0.50000000  1
  O  O17  1  0.99451800  0.00000000  0.00000000  1
  O  O18  1  0.83715700  0.48549800  0.25000000  1
  O  O19  1  0.36906950  0.36299850  0.25000000  1
  O  O20  1  0.06078650  0.35622950  0.99319200  1
  O  O21  1  0.06078650  0.35622950  0.50680800  1
  O  O22  1  0.68136800  0.34346000  0.49340300  1
  O  O23  1  0.68136800  0.34346000  0.00659700  1
  O  O24  1  0.18136800  0.15654000  0.99340300  1
  O  O25  1  0.18136800  0.15654000  0.50659700  1
  O  O26  1  0.56078650  0.14377050  0.49319200  1
  O  O27  1  0.56078650  0.14377050  0.00680800  1
  O  O28  1  0.86906950  0.13700150  0.75000000  1
  O  O29  1  0.33715700  0.01450200  0.75000000  1
  O  O30  1  0.49451800  0.50000000  0.50000000  1
  O  O31  1  0.49451800  0.50000000  0.00000000  1
  O  O32  1  0.33715700  0.98549800  0.25000000  1
  O  O33  1  0.86906950  0.86299850  0.25000000  1
  O  O34  1  0.56078650  0.85622950  0.99319200  1
  O  O35  1  0.56078650  0.85622950  0.50680800  1
  O  O36  1  0.18136800  0.84346000  0.49340300  1
  O  O37  1  0.18136800  0.84346000  0.00659700  1
  O  O38  1  0.68136800  0.65654000  0.99340300  1
  O  O39  1  0.68136800  0.65654000  0.50659700  1
  O  O40  1  0.06078650  0.64377050  0.49319200  1
  O  O41  1  0.06078650  0.64377050  0.00680800  1
  O  O42  1  0.36906950  0.63700150  0.75000000  1
  O  O43  1  0.83715700  0.51450200  0.75000000  1
