# generated using pymatgen
data_K2Mg(CO3)2
_symmetry_space_group_name_H-M   'P 1'
_cell_length_a   5.21356014
_cell_length_b   5.21356014
_cell_length_c   17.77541417
_cell_angle_alpha   90.00000000
_cell_angle_beta   90.00000000
_cell_angle_gamma   120.00000000
_symmetry_Int_Tables_number   1
_chemical_formula_structural   K2Mg(CO3)2
_chemical_formula_sum   'K6 Mg3 C6 O18'
_cell_volume   418.42645539
_cell_formula_units_Z   3
loop_
 _symmetry_equiv_pos_site_id
 _symmetry_equiv_pos_as_xyz
  1  'x, y, z'
loop_
 _atom_site_type_symbol
 _atom_site_label
 _atom_site_symmetry_multiplicity
 _atom_site_fract_x
 _atom_site_fract_y
 _atom_site_fract_z
 _atom_site_occupancy
  K  K0  1  0.00000000  0.00000000  0.21139000  1
  K  K1  1  0.66666667  0.33333333  0.12194333  1
  K  K2  1  0.66666667  0.33333333  0.54472333  1
  K  K3  1  0.33333333  0.66666667  0.45527667  1
  K  K4  1  0.33333333  0.66666667  0.87805667  1
  K  K5  1  0.00000000  0.00000000  0.78861000  1
  Mg  Mg6  1  0.00000000  0.00000000  0.00000000  1
  Mg  Mg7  1  0.66666667  0.33333333  0.33333333  1
  Mg  Mg8  1  0.33333333  0.66666667  0.66666667  1
  C  C9  1  0.33333333  0.66666667  0.06945767  1
  C  C10  1  0.33333333  0.66666667  0.26387567  1
  C  C11  1  0.00000000  0.00000000  0.40279100  1
  C  C12  1  0.00000000  0.00000000  0.59720900  1
  C  C13  1  0.66666667  0.33333333  0.73612433  1
  C  C14  1  0.66666667  0.33333333  0.93054233  1
  O  O15  1  0.04508267  0.52254133  0.26251233  1
  O  O16  1  0.47745867  0.95491733  0.26251233  1
  O  O17  1  0.47745867  0.52254133  0.26251233  1
  O  O18  1  0.18920800  0.81079200  0.07082100  1
  O  O19  1  0.18920800  0.37841600  0.07082100  1
  O  O20  1  0.62158400  0.81079200  0.07082100  1
  O  O21  1  0.71174933  0.85587467  0.59584567  1
  O  O22  1  0.14412533  0.28825067  0.59584567  1
  O  O23  1  0.14412533  0.85587467  0.59584567  1
  O  O24  1  0.85587467  0.14412533  0.40415433  1
  O  O25  1  0.85587467  0.71174933  0.40415433  1
  O  O26  1  0.28825067  0.14412533  0.40415433  1
  O  O27  1  0.37841600  0.18920800  0.92917900  1
  O  O28  1  0.81079200  0.62158400  0.92917900  1
  O  O29  1  0.81079200  0.18920800  0.92917900  1
  O  O30  1  0.52254133  0.47745867  0.73748767  1
  O  O31  1  0.52254133  0.04508267  0.73748767  1
  O  O32  1  0.95491733  0.47745867  0.73748767  1
