# generated using pymatgen
data_Tl4SiS4
_symmetry_space_group_name_H-M   'P 1'
_cell_length_a   12.97685800
_cell_length_b   11.76317800
_cell_length_c   7.80755750
_cell_angle_alpha   90.00000000
_cell_angle_beta   114.22863203
_cell_angle_gamma   90.00000000
_symmetry_Int_Tables_number   1
_chemical_formula_structural   Tl4SiS4
_chemical_formula_sum   'Tl16 Si4 S16'
_cell_volume   1086.83557426
_cell_formula_units_Z   4
loop_
 _symmetry_equiv_pos_site_id
 _symmetry_equiv_pos_as_xyz
  1  'x, y, z'
loop_
 _atom_site_type_symbol
 _atom_site_label
 _atom_site_symmetry_multiplicity
 _atom_site_fract_x
 _atom_site_fract_y
 _atom_site_fract_z
 _atom_site_occupancy
  Tl  Tl0  1  0.29651100  0.48821800  0.92301900  1
  Tl  Tl1  1  0.29651100  0.51178200  0.42301900  1
  Tl  Tl2  1  0.19404050  0.77082350  0.96298700  1
  Tl  Tl3  1  0.19404050  0.22917650  0.46298700  1
  Tl  Tl4  1  0.12635650  0.13662450  0.92186200  1
  Tl  Tl5  1  0.12635650  0.86337550  0.42186200  1
  Tl  Tl6  1  0.97478150  0.39368350  0.99278400  1
  Tl  Tl7  1  0.97478150  0.60631650  0.49278400  1
  Tl  Tl8  1  0.79651100  0.98821800  0.92301900  1
  Tl  Tl9  1  0.79651100  0.01178200  0.42301900  1
  Tl  Tl10  1  0.69404050  0.27082350  0.96298700  1
  Tl  Tl11  1  0.69404050  0.72917650  0.46298700  1
  Tl  Tl12  1  0.62635650  0.63662450  0.92186200  1
  Tl  Tl13  1  0.62635650  0.36337550  0.42186200  1
  Tl  Tl14  1  0.47478150  0.89368350  0.99278400  1
  Tl  Tl15  1  0.47478150  0.10631650  0.49278400  1
  Si  Si16  1  0.90986400  0.70760600  0.97205100  1
  Si  Si17  1  0.90986400  0.29239400  0.47205100  1
  Si  Si18  1  0.40986400  0.20760600  0.97205100  1
  Si  Si19  1  0.40986400  0.79239400  0.47205100  1
  S  S20  1  0.93289850  0.16186950  0.30024800  1
  S  S21  1  0.80767500  0.42635100  0.29558400  1
  S  S22  1  0.80767500  0.57364900  0.79558400  1
  S  S23  1  0.07102750  0.64045650  0.15666300  1
  S  S24  1  0.83104500  0.22441900  0.64360200  1
  S  S25  1  0.83104500  0.77558100  0.14360200  1
  S  S26  1  0.07102750  0.35954350  0.65666300  1
  S  S27  1  0.93289850  0.83813050  0.80024800  1
  S  S28  1  0.43289850  0.66186950  0.30024800  1
  S  S29  1  0.30767500  0.92635100  0.29558400  1
  S  S30  1  0.30767500  0.07364900  0.79558400  1
  S  S31  1  0.57102750  0.14045650  0.15666300  1
  S  S32  1  0.33104500  0.72441900  0.64360200  1
  S  S33  1  0.33104500  0.27558100  0.14360200  1
  S  S34  1  0.57102750  0.85954350  0.65666300  1
  S  S35  1  0.43289850  0.33813050  0.80024800  1
