# generated using pymatgen
data_Ca3SnS5
_symmetry_space_group_name_H-M   'P 1'
_cell_length_a   7.70376400
_cell_length_b   7.70376400
_cell_length_c   14.22889200
_cell_angle_alpha   90.00000000
_cell_angle_beta   90.00000000
_cell_angle_gamma   90.00000000
_symmetry_Int_Tables_number   1
_chemical_formula_structural   Ca3SnS5
_chemical_formula_sum   'Ca12 Sn4 S20'
_cell_volume   844.45599453
_cell_formula_units_Z   4
loop_
 _symmetry_equiv_pos_site_id
 _symmetry_equiv_pos_as_xyz
  1  'x, y, z'
loop_
 _atom_site_type_symbol
 _atom_site_label
 _atom_site_symmetry_multiplicity
 _atom_site_fract_x
 _atom_site_fract_y
 _atom_site_fract_z
 _atom_site_occupancy
  Ca  Ca0  1  0.50000000  0.50000000  0.25000000  1
  Ca  Ca1  1  0.00000000  0.00000000  0.25000000  1
  Ca  Ca2  1  0.83723600  0.33723600  0.00000000  1
  Ca  Ca3  1  0.16276400  0.66276400  0.00000000  1
  Ca  Ca4  1  0.66276400  0.83723600  0.00000000  1
  Ca  Ca5  1  0.33723600  0.16276400  0.00000000  1
  Ca  Ca6  1  0.00000000  0.00000000  0.75000000  1
  Ca  Ca7  1  0.50000000  0.50000000  0.75000000  1
  Ca  Ca8  1  0.33723600  0.83723600  0.50000000  1
  Ca  Ca9  1  0.66276400  0.16276400  0.50000000  1
  Ca  Ca10  1  0.16276400  0.33723600  0.50000000  1
  Ca  Ca11  1  0.83723600  0.66276400  0.50000000  1
  Sn  Sn12  1  0.00000000  0.50000000  0.25000000  1
  Sn  Sn13  1  0.50000000  0.00000000  0.25000000  1
  Sn  Sn14  1  0.50000000  0.00000000  0.75000000  1
  Sn  Sn15  1  0.00000000  0.50000000  0.75000000  1
  S  S16  1  0.00000000  0.00000000  0.00000000  1
  S  S17  1  0.50000000  0.50000000  0.00000000  1
  S  S18  1  0.16440500  0.66440500  0.35763500  1
  S  S19  1  0.83559500  0.33559500  0.35763500  1
  S  S20  1  0.33559500  0.16440500  0.35763500  1
  S  S21  1  0.66440500  0.83559500  0.35763500  1
  S  S22  1  0.33559500  0.83559500  0.14236500  1
  S  S23  1  0.66440500  0.16440500  0.14236500  1
  S  S24  1  0.16440500  0.33559500  0.14236500  1
  S  S25  1  0.83559500  0.66440500  0.14236500  1
  S  S26  1  0.50000000  0.50000000  0.50000000  1
  S  S27  1  0.00000000  0.00000000  0.50000000  1
  S  S28  1  0.66440500  0.16440500  0.85763500  1
  S  S29  1  0.33559500  0.83559500  0.85763500  1
  S  S30  1  0.83559500  0.66440500  0.85763500  1
  S  S31  1  0.16440500  0.33559500  0.85763500  1
  S  S32  1  0.83559500  0.33559500  0.64236500  1
  S  S33  1  0.16440500  0.66440500  0.64236500  1
  S  S34  1  0.66440500  0.83559500  0.64236500  1
  S  S35  1  0.33559500  0.16440500  0.64236500  1
