# generated using pymatgen
data_Tb3SbO7
_symmetry_space_group_name_H-M   'P 1'
_cell_length_a   6.46314900
_cell_length_b   6.50750814
_cell_length_c   7.61340467
_cell_angle_alpha   106.81274731
_cell_angle_beta   89.79402266
_cell_angle_gamma   98.11192685
_symmetry_Int_Tables_number   1
_chemical_formula_structural   Tb3SbO7
_chemical_formula_sum   'Tb6 Sb2 O14'
_cell_volume   303.22360954
_cell_formula_units_Z   2
loop_
 _symmetry_equiv_pos_site_id
 _symmetry_equiv_pos_as_xyz
  1  'x, y, z'
loop_
 _atom_site_type_symbol
 _atom_site_label
 _atom_site_symmetry_multiplicity
 _atom_site_fract_x
 _atom_site_fract_y
 _atom_site_fract_z
 _atom_site_occupancy
  Tb  Tb0  1  0.73529200  0.46480400  0.11739600  1
  Tb  Tb1  1  0.73774100  0.47484700  0.61466000  1
  Tb  Tb2  1  0.54061000  0.99576900  0.74831700  1
  Tb  Tb3  1  0.45939000  0.00423100  0.25168300  1
  Tb  Tb4  1  0.26225900  0.52515300  0.38534000  1
  Tb  Tb5  1  0.26470800  0.53519600  0.88260400  1
  Sb  Sb6  1  0.00000000  0.00000000  0.00000000  1
  Sb  Sb7  1  0.00000000  0.00000000  0.50000000  1
  O  O8  1  0.71031200  0.06135900  0.48340200  1
  O  O9  1  0.92456500  0.68003200  0.95678000  1
  O  O10  1  0.70916300  0.06808900  0.04689000  1
  O  O11  1  0.93127100  0.66865500  0.38728600  1
  O  O12  1  0.89962500  0.92798600  0.73149000  1
  O  O13  1  0.55912800  0.35426800  0.83380100  1
  O  O14  1  0.54836600  0.36155600  0.34460700  1
  O  O15  1  0.45163400  0.63844400  0.65539300  1
  O  O16  1  0.44087200  0.64573200  0.16619900  1
  O  O17  1  0.10037500  0.07201400  0.26851000  1
  O  O18  1  0.06872900  0.33134500  0.61271400  1
  O  O19  1  0.29083700  0.93191100  0.95311000  1
  O  O20  1  0.07543500  0.31996800  0.04322000  1
  O  O21  1  0.28968800  0.93864100  0.51659800  1
