# generated using pymatgen
data_KIn(GeO3)2
_symmetry_space_group_name_H-M   'P 1'
_cell_length_a   10.51766800
_cell_length_b   9.64820200
_cell_length_c   5.72381140
_cell_angle_alpha   90.00000000
_cell_angle_beta   105.25501072
_cell_angle_gamma   90.00000000
_symmetry_Int_Tables_number   1
_chemical_formula_structural   KIn(GeO3)2
_chemical_formula_sum   'K4 In4 Ge8 O24'
_cell_volume   560.36679524
_cell_formula_units_Z   4
loop_
 _symmetry_equiv_pos_site_id
 _symmetry_equiv_pos_as_xyz
  1  'x, y, z'
loop_
 _atom_site_type_symbol
 _atom_site_label
 _atom_site_symmetry_multiplicity
 _atom_site_fract_x
 _atom_site_fract_y
 _atom_site_fract_z
 _atom_site_occupancy
  K  K0  1  0.00000000  0.68822400  0.75000000  1
  K  K1  1  0.00000000  0.31177600  0.25000000  1
  K  K2  1  0.50000000  0.18822400  0.75000000  1
  K  K3  1  0.50000000  0.81177600  0.25000000  1
  In  In4  1  0.00000000  0.10402100  0.75000000  1
  In  In5  1  0.00000000  0.89597900  0.25000000  1
  In  In6  1  0.50000000  0.60402100  0.75000000  1
  In  In7  1  0.50000000  0.39597900  0.25000000  1
  Ge  Ge8  1  0.21548200  0.58903000  0.29191500  1
  Ge  Ge9  1  0.78451800  0.41097000  0.70808500  1
  Ge  Ge10  1  0.78451800  0.58903000  0.20808500  1
  Ge  Ge11  1  0.21548200  0.41097000  0.79191500  1
  Ge  Ge12  1  0.71548200  0.08903000  0.29191500  1
  Ge  Ge13  1  0.28451800  0.91097000  0.70808500  1
  Ge  Ge14  1  0.28451800  0.08903000  0.20808500  1
  Ge  Ge15  1  0.71548200  0.91097000  0.79191500  1
  O  O16  1  0.85019750  0.51561850  0.97612900  1
  O  O17  1  0.14980250  0.51561850  0.52387100  1
  O  O18  1  0.14980250  0.48438150  0.02387100  1
  O  O19  1  0.85019750  0.48438150  0.47612900  1
  O  O20  1  0.84860200  0.75385700  0.28505500  1
  O  O21  1  0.15139800  0.75385700  0.21494500  1
  O  O22  1  0.15139800  0.24614300  0.71494500  1
  O  O23  1  0.84860200  0.24614300  0.78505500  1
  O  O24  1  0.60985250  0.42832350  0.62899600  1
  O  O25  1  0.39014750  0.42832350  0.87100400  1
  O  O26  1  0.39014750  0.57167650  0.37100400  1
  O  O27  1  0.60985250  0.57167650  0.12899600  1
  O  O28  1  0.35019750  0.01561850  0.97612900  1
  O  O29  1  0.64980250  0.01561850  0.52387100  1
  O  O30  1  0.64980250  0.98438150  0.02387100  1
  O  O31  1  0.35019750  0.98438150  0.47612900  1
  O  O32  1  0.34860200  0.25385700  0.28505500  1
  O  O33  1  0.65139800  0.25385700  0.21494500  1
  O  O34  1  0.65139800  0.74614300  0.71494500  1
  O  O35  1  0.34860200  0.74614300  0.78505500  1
  O  O36  1  0.10985250  0.92832350  0.62899600  1
  O  O37  1  0.89014750  0.92832350  0.87100400  1
  O  O38  1  0.89014750  0.07167650  0.37100400  1
  O  O39  1  0.10985250  0.07167650  0.12899600  1
