# generated using pymatgen
data_NbO2
_symmetry_space_group_name_H-M   'P 1'
_cell_length_a   13.89418200
_cell_length_b   13.89418200
_cell_length_c   6.08928800
_cell_angle_alpha   90.00000000
_cell_angle_beta   90.00000000
_cell_angle_gamma   90.00000000
_symmetry_Int_Tables_number   1
_chemical_formula_structural   NbO2
_chemical_formula_sum   'Nb32 O64'
_cell_volume   1175.52665672
_cell_formula_units_Z   32
loop_
 _symmetry_equiv_pos_site_id
 _symmetry_equiv_pos_as_xyz
  1  'x, y, z'
loop_
 _atom_site_type_symbol
 _atom_site_label
 _atom_site_symmetry_multiplicity
 _atom_site_fract_x
 _atom_site_fract_y
 _atom_site_fract_z
 _atom_site_occupancy
  Nb  Nb0  1  0.37500150  0.36574650  0.59474050  1
  Nb  Nb1  1  0.63425350  0.87500150  0.34474050  1
  Nb  Nb2  1  0.36574650  0.12499850  0.34474050  1
  Nb  Nb3  1  0.62499850  0.63425350  0.59474050  1
  Nb  Nb4  1  0.62499850  0.13425350  0.15525950  1
  Nb  Nb5  1  0.86574650  0.12499850  0.90525950  1
  Nb  Nb6  1  0.13425350  0.87500150  0.90525950  1
  Nb  Nb7  1  0.37500150  0.86574650  0.15525950  1
  Nb  Nb8  1  0.87400250  0.88667150  0.65072850  1
  Nb  Nb9  1  0.61332850  0.87400250  0.90072850  1
  Nb  Nb10  1  0.38667150  0.12599750  0.90072850  1
  Nb  Nb11  1  0.12599750  0.11332850  0.65072850  1
  Nb  Nb12  1  0.62599750  0.11332850  0.59927150  1
  Nb  Nb13  1  0.38667150  0.62599750  0.84927150  1
  Nb  Nb14  1  0.61332850  0.37400250  0.84927150  1
  Nb  Nb15  1  0.37400250  0.88667150  0.59927150  1
  Nb  Nb16  1  0.87500150  0.86574650  0.09474050  1
  Nb  Nb17  1  0.13425350  0.37500150  0.84474050  1
  Nb  Nb18  1  0.86574650  0.62499850  0.84474050  1
  Nb  Nb19  1  0.12499850  0.13425350  0.09474050  1
  Nb  Nb20  1  0.12499850  0.63425350  0.65525950  1
  Nb  Nb21  1  0.36574650  0.62499850  0.40525950  1
  Nb  Nb22  1  0.63425350  0.37500150  0.40525950  1
  Nb  Nb23  1  0.87500150  0.36574650  0.65525950  1
  Nb  Nb24  1  0.37400250  0.38667150  0.15072850  1
  Nb  Nb25  1  0.11332850  0.37400250  0.40072850  1
  Nb  Nb26  1  0.88667150  0.62599750  0.40072850  1
  Nb  Nb27  1  0.62599750  0.61332850  0.15072850  1
  Nb  Nb28  1  0.12599750  0.61332850  0.09927150  1
  Nb  Nb29  1  0.88667150  0.12599750  0.34927150  1
  Nb  Nb30  1  0.11332850  0.87400250  0.34927150  1
  Nb  Nb31  1  0.87400250  0.38667150  0.09927150  1
  O  O32  1  0.37467700  0.23662400  0.11748400  1
  O  O33  1  0.76337600  0.87467700  0.86748400  1
  O  O34  1  0.23662400  0.12532300  0.86748400  1
  O  O35  1  0.62532300  0.76337600  0.11748400  1
  O  O36  1  0.62532300  0.26337600  0.63251600  1
  O  O37  1  0.73662400  0.12532300  0.38251600  1
  O  O38  1  0.26337600  0.87467700  0.38251600  1
  O  O39  1  0.37467700  0.73662400  0.63251600  1
  O  O40  1  0.37506000  0.22626100  0.62642400  1
  O  O41  1  0.77373900  0.87506000  0.37642400  1
  O  O42  1  0.22626100  0.12494000  0.37642400  1
  O  O43  1  0.62494000  0.77373900  0.62642400  1
  O  O44  1  0.62494000  0.27373900  0.12357600  1
  O  O45  1  0.72626100  0.12494000  0.87357600  1
  O  O46  1  0.27373900  0.87506000  0.87357600  1
  O  O47  1  0.37506000  0.72626100  0.12357600  1
  O  O48  1  0.37607350  0.01329950  0.11208850  1
  O  O49  1  0.48670050  0.37607350  0.36208850  1
  O  O50  1  0.51329950  0.62392650  0.36208850  1
  O  O51  1  0.62392650  0.98670050  0.11208850  1
  O  O52  1  0.12392650  0.98670050  0.13791150  1
  O  O53  1  0.51329950  0.12392650  0.38791150  1
  O  O54  1  0.48670050  0.87607350  0.38791150  1
  O  O55  1  0.87607350  0.01329950  0.13791150  1
  O  O56  1  0.37390450  0.02662950  0.62932450  1
  O  O57  1  0.47337050  0.37390450  0.87932450  1
  O  O58  1  0.52662950  0.62609550  0.87932450  1
  O  O59  1  0.62609550  0.97337050  0.62932450  1
  O  O60  1  0.12609550  0.97337050  0.62067550  1
  O  O61  1  0.52662950  0.12609550  0.87067550  1
  O  O62  1  0.47337050  0.87390450  0.87067550  1
  O  O63  1  0.87390450  0.02662950  0.62067550  1
  O  O64  1  0.87467700  0.73662400  0.61748400  1
  O  O65  1  0.26337600  0.37467700  0.36748400  1
  O  O66  1  0.73662400  0.62532300  0.36748400  1
  O  O67  1  0.12532300  0.26337600  0.61748400  1
  O  O68  1  0.12532300  0.76337600  0.13251600  1
  O  O69  1  0.23662400  0.62532300  0.88251600  1
  O  O70  1  0.76337600  0.37467700  0.88251600  1
  O  O71  1  0.87467700  0.23662400  0.13251600  1
  O  O72  1  0.87506000  0.72626100  0.12642400  1
  O  O73  1  0.27373900  0.37506000  0.87642400  1
  O  O74  1  0.72626100  0.62494000  0.87642400  1
  O  O75  1  0.12494000  0.27373900  0.12642400  1
  O  O76  1  0.12494000  0.77373900  0.62357600  1
  O  O77  1  0.22626100  0.62494000  0.37357600  1
  O  O78  1  0.77373900  0.37506000  0.37357600  1
  O  O79  1  0.87506000  0.22626100  0.62357600  1
  O  O80  1  0.87607350  0.51329950  0.61208850  1
  O  O81  1  0.98670050  0.87607350  0.86208850  1
  O  O82  1  0.01329950  0.12392650  0.86208850  1
  O  O83  1  0.12392650  0.48670050  0.61208850  1
  O  O84  1  0.62392650  0.48670050  0.63791150  1
  O  O85  1  0.01329950  0.62392650  0.88791150  1
  O  O86  1  0.98670050  0.37607350  0.88791150  1
  O  O87  1  0.37607350  0.51329950  0.63791150  1
  O  O88  1  0.87390450  0.52662950  0.12932450  1
  O  O89  1  0.97337050  0.87390450  0.37932450  1
  O  O90  1  0.02662950  0.12609550  0.37932450  1
  O  O91  1  0.12609550  0.47337050  0.12932450  1
  O  O92  1  0.62609550  0.47337050  0.12067550  1
  O  O93  1  0.02662950  0.62609550  0.37067550  1
  O  O94  1  0.97337050  0.37390450  0.37067550  1
  O  O95  1  0.37390450  0.52662950  0.12067550  1
