# generated using pymatgen
data_Ba9La5I33
_symmetry_space_group_name_H-M   'P 1'
_cell_length_a   13.16773000
_cell_length_b   13.21090490
_cell_length_c   25.17294704
_cell_angle_alpha   99.66576536
_cell_angle_beta   99.79060689
_cell_angle_gamma   108.82608203
_symmetry_Int_Tables_number   1
_chemical_formula_structural   Ba9La5I33
_chemical_formula_sum   'Ba18 La10 I66'
_cell_volume   3966.18283075
_cell_formula_units_Z   2
loop_
 _symmetry_equiv_pos_site_id
 _symmetry_equiv_pos_as_xyz
  1  'x, y, z'
loop_
 _atom_site_type_symbol
 _atom_site_label
 _atom_site_symmetry_multiplicity
 _atom_site_fract_x
 _atom_site_fract_y
 _atom_site_fract_z
 _atom_site_occupancy
  Ba  Ba0  1  0.92226600  0.25366300  0.92861900  1
  Ba  Ba1  1  0.32059300  0.09435700  0.96547600  1
  Ba  Ba2  1  0.47374900  0.02117200  0.19416800  1
  Ba  Ba3  1  0.86570000  0.26236000  0.33806700  1
  Ba  Ba4  1  0.24918900  0.12798700  0.37692000  1
  Ba  Ba5  1  0.67800500  0.39912300  0.54218800  1
  Ba  Ba6  1  0.07765300  0.24398000  0.56629200  1
  Ba  Ba7  1  0.75947600  0.35937000  0.12165500  1
  Ba  Ba8  1  0.13863100  0.23300500  0.15990900  1
  Ba  Ba9  1  0.86136900  0.76699500  0.84009100  1
  Ba  Ba10  1  0.24052400  0.64063000  0.87834500  1
  Ba  Ba11  1  0.92234700  0.75602000  0.43370800  1
  Ba  Ba12  1  0.32199500  0.60087700  0.45781200  1
  Ba  Ba13  1  0.75081100  0.87201300  0.62308000  1
  Ba  Ba14  1  0.13430000  0.73764000  0.66193300  1
  Ba  Ba15  1  0.52625100  0.97882800  0.80583200  1
  Ba  Ba16  1  0.67940700  0.90564300  0.03452400  1
  Ba  Ba17  1  0.07773400  0.74633700  0.07138100  1
  La  La18  1  0.38097800  0.04547700  0.58583900  1
  La  La19  1  0.18035300  0.14154600  0.76518900  1
  La  La20  1  0.85574500  0.35215000  0.73357700  1
  La  La21  1  0.62505600  0.45625100  0.92594600  1
  La  La22  1  0.46317400  0.53573000  0.68668200  1
  La  La23  1  0.53682600  0.46427000  0.31331800  1
  La  La24  1  0.37494400  0.54374900  0.07405400  1
  La  La25  1  0.14425500  0.64785000  0.26642300  1
  La  La26  1  0.81964700  0.85845400  0.23481100  1
  La  La27  1  0.61902200  0.95452300  0.41416100  1
  I  I28  1  0.77152700  0.13955600  0.78407200  1
  I  I29  1  0.94964300  0.15359300  0.67549100  1
  I  I30  1  0.62087400  0.20917000  0.91956700  1
  I  I31  1  0.74142700  0.04577500  0.19402700  1
  I  I32  1  0.16139800  0.01605300  0.63709000  1
  I  I33  1  0.06107500  0.07640700  0.87398200  1
  I  I34  1  0.65433300  0.18524300  0.62778000  1
  I  I35  1  0.44492600  0.18490400  0.73928000  1
  I  I36  1  0.81052200  0.22357400  0.47570800  1
  I  I37  1  0.58209800  0.11475400  0.33854800  1
  I  I38  1  0.47875400  0.11885400  0.47416500  1
  I  I39  1  0.15790300  0.03768800  0.48731600  1
  I  I40  1  0.35600800  0.29837800  0.87926600  1
  I  I41  1  0.88624600  0.18395500  0.06063700  1
  I  I42  1  0.82029900  0.45559800  0.85591200  1
  I  I43  1  0.55256000  0.10580800  0.07253700  1
  I  I44  1  0.94655600  0.42981800  0.62722300  1
  I  I45  1  0.24227700  0.03769100  0.09370100  1
  I  I46  1  0.39705800  0.30253300  0.58944000  1
  I  I47  1  0.98025500  0.37918800  0.22575100  1
  I  I48  1  0.35218700  0.21034100  0.26321000  1
  I  I49  1  0.65698200  0.31632400  0.24076400  1
  I  I50  1  0.03432800  0.11889400  0.27486100  1
  I  I51  1  0.25182800  0.35896400  0.71133300  1
  I  I52  1  0.70536700  0.50225400  0.69358600  1
  I  I53  1  0.07535100  0.35450600  0.82242100  1
  I  I54  1  0.75147500  0.46507700  0.40551300  1
  I  I55  1  0.56775300  0.56064800  0.82146500  1
  I  I56  1  0.45077500  0.39396900  0.42432800  1
  I  I57  1  0.79789300  0.71357600  0.96993800  1
  I  I58  1  0.47154000  0.61038100  0.96462600  1
  I  I59  1  0.12482500  0.31831700  0.43700500  1
  I  I60  1  0.14703100  0.52961400  0.98359700  1
  I  I61  1  0.85296900  0.47038600  0.01640300  1
  I  I62  1  0.87517500  0.68168300  0.56299500  1
  I  I63  1  0.52846000  0.38961900  0.03537400  1
  I  I64  1  0.20210700  0.28642400  0.03006200  1
  I  I65  1  0.54922500  0.60603100  0.57567200  1
  I  I66  1  0.43224700  0.43935200  0.17853500  1
  I  I67  1  0.24852500  0.53492300  0.59448700  1
  I  I68  1  0.92464900  0.64549400  0.17757900  1
  I  I69  1  0.29463300  0.49774600  0.30641400  1
  I  I70  1  0.74817200  0.64103600  0.28866700  1
  I  I71  1  0.96567200  0.88110600  0.72513900  1
  I  I72  1  0.34301800  0.68367600  0.75923600  1
  I  I73  1  0.64781300  0.78965900  0.73679000  1
  I  I74  1  0.01974500  0.62081200  0.77424900  1
  I  I75  1  0.60294200  0.69746700  0.41056000  1
  I  I76  1  0.75772300  0.96230900  0.90629900  1
  I  I77  1  0.05344400  0.57018200  0.37277700  1
  I  I78  1  0.44744000  0.89419200  0.92746300  1
  I  I79  1  0.17970100  0.54440200  0.14408800  1
  I  I80  1  0.11375400  0.81604500  0.93936300  1
  I  I81  1  0.64399200  0.70162200  0.12073400  1
  I  I82  1  0.84209700  0.96231200  0.51268400  1
  I  I83  1  0.52124600  0.88114600  0.52583500  1
  I  I84  1  0.41790200  0.88524600  0.66145200  1
  I  I85  1  0.18947800  0.77642600  0.52429200  1
  I  I86  1  0.55507400  0.81509600  0.26072000  1
  I  I87  1  0.34566700  0.81475700  0.37222000  1
  I  I88  1  0.93892500  0.92359300  0.12601800  1
  I  I89  1  0.83860200  0.98394700  0.36291000  1
  I  I90  1  0.25857300  0.95422500  0.80597300  1
  I  I91  1  0.37912600  0.79083000  0.08043300  1
  I  I92  1  0.05035700  0.84640700  0.32450900  1
  I  I93  1  0.22847300  0.86044400  0.21592800  1
