# generated using pymatgen
data_Li2V3P4H4O19
_symmetry_space_group_name_H-M   'P 1'
_cell_length_a   8.82335400
_cell_length_b   9.25708500
_cell_length_c   10.50889191
_cell_angle_alpha   90.00000000
_cell_angle_beta   114.21849036
_cell_angle_gamma   90.00000000
_symmetry_Int_Tables_number   1
_chemical_formula_structural   Li2V3P4H4O19
_chemical_formula_sum   'Li4 V6 P8 H8 O38'
_cell_volume   782.80555595
_cell_formula_units_Z   2
loop_
 _symmetry_equiv_pos_site_id
 _symmetry_equiv_pos_as_xyz
  1  'x, y, z'
loop_
 _atom_site_type_symbol
 _atom_site_label
 _atom_site_symmetry_multiplicity
 _atom_site_fract_x
 _atom_site_fract_y
 _atom_site_fract_z
 _atom_site_occupancy
  Li  Li0  1  0.75475200  0.53003400  0.99537200  1
  Li  Li1  1  0.25475200  0.46996600  0.99537200  1
  Li  Li2  1  0.20997300  0.78028800  0.45938300  1
  Li  Li3  1  0.70997300  0.21971200  0.45938300  1
  V  V4  1  0.67152800  0.75325500  0.78904300  1
  V  V5  1  0.17152800  0.24674500  0.78904300  1
  V  V6  1  0.26699800  0.25564900  0.49503900  1
  V  V7  1  0.76699800  0.74435100  0.49503900  1
  V  V8  1  0.81646400  0.75627600  0.17889700  1
  V  V9  1  0.31646400  0.24372400  0.17889700  1
  P  P10  1  0.45900400  0.04535600  0.76284000  1
  P  P11  1  0.38737800  0.50085100  0.73827300  1
  P  P12  1  0.95900400  0.95464400  0.76284000  1
  P  P13  1  0.88737800  0.49914900  0.73827300  1
  P  P14  1  0.11410900  0.49725700  0.26359900  1
  P  P15  1  0.04544600  0.04465000  0.24504900  1
  P  P16  1  0.61410900  0.50274300  0.26359900  1
  P  P17  1  0.54544600  0.95535000  0.24504900  1
  H  H18  1  0.72427400  0.07148100  0.85970500  1
  H  H19  1  0.62998300  0.40340600  0.65082800  1
  H  H20  1  0.22427400  0.92851900  0.85970500  1
  H  H21  1  0.12998300  0.59659400  0.65082800  1
  H  H22  1  0.87251300  0.40234600  0.35293900  1
  H  H23  1  0.77744000  0.06858000  0.14745000  1
  H  H24  1  0.37251300  0.59765400  0.35293900  1
  H  H25  1  0.27744000  0.93142000  0.14745000  1
  O  O26  1  0.75614000  0.76622400  0.00270000  1
  O  O27  1  0.62600700  0.12405300  0.86028600  1
  O  O28  1  0.25614000  0.23377600  0.00270000  1
  O  O29  1  0.54402900  0.58854900  0.82188000  1
  O  O30  1  0.34610600  0.41299300  0.84419600  1
  O  O31  1  0.48590900  0.88073200  0.76639900  1
  O  O32  1  0.32826600  0.07840600  0.82130300  1
  O  O33  1  0.12600700  0.87594700  0.86028600  1
  O  O34  1  0.04402900  0.41145100  0.82188000  1
  O  O35  1  0.42092400  0.40606600  0.63166200  1
  O  O36  1  0.40152400  0.09780800  0.61206200  1
  O  O37  1  0.24347600  0.61438600  0.65356800  1
  O  O38  1  0.84610600  0.58700700  0.84419600  1
  O  O39  1  0.98590900  0.11926800  0.76639900  1
  O  O40  1  0.82826600  0.92159400  0.82130300  1
  O  O41  1  0.13904200  0.26804100  0.61816100  1
  O  O42  1  0.92092400  0.59393400  0.63166200  1
  O  O43  1  0.90152400  0.90219200  0.61206200  1
  O  O44  1  0.36784500  0.26957300  0.38497400  1
  O  O45  1  0.74347600  0.38561400  0.65356800  1
  O  O46  1  0.25587500  0.61744200  0.34114800  1
  O  O47  1  0.63904200  0.73195900  0.61816100  1
  O  O48  1  0.10768400  0.10152600  0.39435300  1
  O  O49  1  0.09089700  0.40611100  0.37689200  1
  O  O50  1  0.86784500  0.73042700  0.38497400  1
  O  O51  1  0.17122000  0.07495900  0.18069100  1
  O  O52  1  0.02183200  0.87893200  0.25158100  1
  O  O53  1  0.15287600  0.40884500  0.15714900  1
  O  O54  1  0.75587500  0.38255800  0.34114800  1
  O  O55  1  0.60768400  0.89847400  0.39435300  1
  O  O56  1  0.59089700  0.59388900  0.37689200  1
  O  O57  1  0.95573800  0.58254700  0.18274700  1
  O  O58  1  0.87683400  0.11955000  0.14678500  1
  O  O59  1  0.67122000  0.92504100  0.18069100  1
  O  O60  1  0.52183200  0.12106800  0.25158100  1
  O  O61  1  0.65287600  0.59115500  0.15714900  1
  O  O62  1  0.45573800  0.41745300  0.18274700  1
  O  O63  1  0.37683400  0.88045000  0.14678500  1
