# generated using pymatgen
data_Ca2SnS4
_symmetry_space_group_name_H-M   'P 1'
_cell_length_a   7.04192200
_cell_length_b   10.16901600
_cell_length_c   9.73688100
_cell_angle_alpha   90.00000000
_cell_angle_beta   90.00000000
_cell_angle_gamma   90.00000000
_symmetry_Int_Tables_number   1
_chemical_formula_structural   Ca2SnS4
_chemical_formula_sum   'Ca8 Sn4 S16'
_cell_volume   697.25237657
_cell_formula_units_Z   4
loop_
 _symmetry_equiv_pos_site_id
 _symmetry_equiv_pos_as_xyz
  1  'x, y, z'
loop_
 _atom_site_type_symbol
 _atom_site_label
 _atom_site_symmetry_multiplicity
 _atom_site_fract_x
 _atom_site_fract_y
 _atom_site_fract_z
 _atom_site_occupancy
  Ca  Ca0  1  0.33473250  0.18926150  0.25000000  1
  Ca  Ca1  1  0.33473250  0.81073850  0.75000000  1
  Ca  Ca2  1  0.79203200  0.00000000  0.50000000  1
  Ca  Ca3  1  0.79203200  0.00000000  0.00000000  1
  Ca  Ca4  1  0.83473250  0.68926150  0.25000000  1
  Ca  Ca5  1  0.83473250  0.31073850  0.75000000  1
  Ca  Ca6  1  0.29203200  0.50000000  0.50000000  1
  Ca  Ca7  1  0.29203200  0.50000000  0.00000000  1
  Sn  Sn8  1  0.32115200  0.77785000  0.25000000  1
  Sn  Sn9  1  0.32115200  0.22215000  0.75000000  1
  Sn  Sn10  1  0.82115200  0.27785000  0.25000000  1
  Sn  Sn11  1  0.82115200  0.72215000  0.75000000  1
  S  S12  1  0.48616650  0.56628150  0.25000000  1
  S  S13  1  0.48616650  0.43371850  0.75000000  1
  S  S14  1  0.56281050  0.94469050  0.25000000  1
  S  S15  1  0.56281050  0.05530950  0.75000000  1
  S  S16  1  0.61623800  0.26774200  0.44741200  1
  S  S17  1  0.61623800  0.73225800  0.55258800  1
  S  S18  1  0.61623800  0.26774200  0.05258800  1
  S  S19  1  0.61623800  0.73225800  0.94741200  1
  S  S20  1  0.98616650  0.06628150  0.25000000  1
  S  S21  1  0.98616650  0.93371850  0.75000000  1
  S  S22  1  0.06281050  0.44469050  0.25000000  1
  S  S23  1  0.06281050  0.55530950  0.75000000  1
  S  S24  1  0.11623800  0.76774200  0.44741200  1
  S  S25  1  0.11623800  0.23225800  0.55258800  1
  S  S26  1  0.11623800  0.76774200  0.05258800  1
  S  S27  1  0.11623800  0.23225800  0.94741200  1
