# generated using pymatgen
data_ThNF
_symmetry_space_group_name_H-M   'P 1'
_cell_length_a   4.01639362
_cell_length_b   4.01639362
_cell_length_c   20.49898419
_cell_angle_alpha   90.00000000
_cell_angle_beta   90.00000000
_cell_angle_gamma   120.00000000
_symmetry_Int_Tables_number   1
_chemical_formula_structural   ThNF
_chemical_formula_sum   'Th6 N6 F6'
_cell_volume   286.37526861
_cell_formula_units_Z   6
loop_
 _symmetry_equiv_pos_site_id
 _symmetry_equiv_pos_as_xyz
  1  'x, y, z'
loop_
 _atom_site_type_symbol
 _atom_site_label
 _atom_site_symmetry_multiplicity
 _atom_site_fract_x
 _atom_site_fract_y
 _atom_site_fract_z
 _atom_site_occupancy
  Th  Th0  1  0.66666667  0.33333333  0.07139633  1
  Th  Th1  1  0.00000000  0.00000000  0.26193700  1
  Th  Th2  1  0.33333333  0.66666667  0.40472967  1
  Th  Th3  1  0.66666667  0.33333333  0.59527033  1
  Th  Th4  1  0.00000000  0.00000000  0.73806300  1
  Th  Th5  1  0.33333333  0.66666667  0.92860367  1
  N  N6  1  0.33333333  0.66666667  0.28961267  1
  N  N7  1  0.33333333  0.66666667  0.04372067  1
  N  N8  1  0.00000000  0.00000000  0.62294600  1
  N  N9  1  0.00000000  0.00000000  0.37705400  1
  N  N10  1  0.66666667  0.33333333  0.95627933  1
  N  N11  1  0.66666667  0.33333333  0.71038733  1
  F  F12  1  0.00000000  0.00000000  0.13113800  1
  F  F13  1  0.66666667  0.33333333  0.20219533  1
  F  F14  1  0.66666667  0.33333333  0.46447133  1
  F  F15  1  0.33333333  0.66666667  0.53552867  1
  F  F16  1  0.33333333  0.66666667  0.79780467  1
  F  F17  1  0.00000000  0.00000000  0.86886200  1
