# generated using pymatgen
data_LiTlO2
_symmetry_space_group_name_H-M   'P 1'
_cell_length_a   4.63586800
_cell_length_b   4.63586800
_cell_length_c   9.30467400
_cell_angle_alpha   90.00000000
_cell_angle_beta   90.00000000
_cell_angle_gamma   90.00000000
_symmetry_Int_Tables_number   1
_chemical_formula_structural   LiTlO2
_chemical_formula_sum   'Li4 Tl4 O8'
_cell_volume   199.96928086
_cell_formula_units_Z   4
loop_
 _symmetry_equiv_pos_site_id
 _symmetry_equiv_pos_as_xyz
  1  'x, y, z'
loop_
 _atom_site_type_symbol
 _atom_site_label
 _atom_site_symmetry_multiplicity
 _atom_site_fract_x
 _atom_site_fract_y
 _atom_site_fract_z
 _atom_site_occupancy
  Li  Li0  1  0.50000000  0.50000000  0.00000000  1
  Li  Li1  1  0.50000000  0.00000000  0.25000000  1
  Li  Li2  1  0.00000000  0.00000000  0.50000000  1
  Li  Li3  1  0.00000000  0.50000000  0.75000000  1
  Tl  Tl4  1  0.00000000  0.00000000  0.00000000  1
  Tl  Tl5  1  0.00000000  0.50000000  0.25000000  1
  Tl  Tl6  1  0.50000000  0.50000000  0.50000000  1
  Tl  Tl7  1  0.50000000  0.00000000  0.75000000  1
  O  O8  1  0.00000000  0.00000000  0.24343700  1
  O  O9  1  0.50000000  0.50000000  0.25656300  1
  O  O10  1  0.00000000  0.50000000  0.49343700  1
  O  O11  1  0.00000000  0.50000000  0.00656300  1
  O  O12  1  0.50000000  0.50000000  0.74343700  1
  O  O13  1  0.00000000  0.00000000  0.75656300  1
  O  O14  1  0.50000000  0.00000000  0.99343700  1
  O  O15  1  0.50000000  0.00000000  0.50656300  1
