# generated using pymatgen
data_SiO2
_symmetry_space_group_name_H-M   'P 1'
_cell_length_a   7.23990800
_cell_length_b   7.23990800
_cell_length_c   7.23990800
_cell_angle_alpha   90.00000000
_cell_angle_beta   90.00000000
_cell_angle_gamma   90.00000000
_symmetry_Int_Tables_number   1
_chemical_formula_structural   SiO2
_chemical_formula_sum   'Si8 O16'
_cell_volume   379.48895693
_cell_formula_units_Z   8
loop_
 _symmetry_equiv_pos_site_id
 _symmetry_equiv_pos_as_xyz
  1  'x, y, z'
loop_
 _atom_site_type_symbol
 _atom_site_label
 _atom_site_symmetry_multiplicity
 _atom_site_fract_x
 _atom_site_fract_y
 _atom_site_fract_z
 _atom_site_occupancy
  Si  Si0  1  0.98184000  0.51816000  0.48184000  1
  Si  Si1  1  0.51816000  0.48184000  0.98184000  1
  Si  Si2  1  0.48184000  0.98184000  0.51816000  1
  Si  Si3  1  0.01816000  0.01816000  0.01816000  1
  Si  Si4  1  0.72415800  0.77584200  0.22415800  1
  Si  Si5  1  0.77584200  0.22415800  0.72415800  1
  Si  Si6  1  0.22415800  0.72415800  0.77584200  1
  Si  Si7  1  0.27584200  0.27584200  0.27584200  1
  O  O8  1  0.86042900  0.34389100  0.55435200  1
  O  O9  1  0.36042900  0.15610900  0.44564800  1
  O  O10  1  0.13957100  0.84389100  0.94564800  1
  O  O11  1  0.15610900  0.44564800  0.36042900  1
  O  O12  1  0.94564800  0.13957100  0.84389100  1
  O  O13  1  0.44564800  0.36042900  0.15610900  1
  O  O14  1  0.34389100  0.55435200  0.86042900  1
  O  O15  1  0.55435200  0.86042900  0.34389100  1
  O  O16  1  0.14694300  0.14694300  0.14694300  1
  O  O17  1  0.35305700  0.85305700  0.64694300  1
  O  O18  1  0.64694300  0.35305700  0.85305700  1
  O  O19  1  0.85305700  0.64694300  0.35305700  1
  O  O20  1  0.63957100  0.65610900  0.05435200  1
  O  O21  1  0.05435200  0.63957100  0.65610900  1
  O  O22  1  0.65610900  0.05435200  0.63957100  1
  O  O23  1  0.84389100  0.94564800  0.13957100  1
