# generated using pymatgen
data_Sr(AlSe2)2
_symmetry_space_group_name_H-M   'P 1'
_cell_length_a   6.26102800
_cell_length_b   11.11521000
_cell_length_c   11.14119100
_cell_angle_alpha   90.00000000
_cell_angle_beta   90.00000000
_cell_angle_gamma   90.00000000
_symmetry_Int_Tables_number   1
_chemical_formula_structural   Sr(AlSe2)2
_chemical_formula_sum   'Sr4 Al8 Se16'
_cell_volume   775.34490598
_cell_formula_units_Z   4
loop_
 _symmetry_equiv_pos_site_id
 _symmetry_equiv_pos_as_xyz
  1  'x, y, z'
loop_
 _atom_site_type_symbol
 _atom_site_label
 _atom_site_symmetry_multiplicity
 _atom_site_fract_x
 _atom_site_fract_y
 _atom_site_fract_z
 _atom_site_occupancy
  Sr  Sr0  1  0.50000000  0.00000000  0.75000000  1
  Sr  Sr1  1  0.50000000  0.00000000  0.25000000  1
  Sr  Sr2  1  0.00000000  0.50000000  0.75000000  1
  Sr  Sr3  1  0.00000000  0.50000000  0.25000000  1
  Al  Al4  1  0.50117050  0.25935650  0.50000000  1
  Al  Al5  1  0.99882950  0.24064350  0.50000000  1
  Al  Al6  1  0.00117050  0.24064350  0.00000000  1
  Al  Al7  1  0.49882950  0.25935650  0.00000000  1
  Al  Al8  1  0.00117050  0.75935650  0.50000000  1
  Al  Al9  1  0.49882950  0.74064350  0.50000000  1
  Al  Al10  1  0.50117050  0.74064350  0.00000000  1
  Al  Al11  1  0.99882950  0.75935650  0.00000000  1
  Se  Se12  1  0.25000000  0.25000000  0.83383200  1
  Se  Se13  1  0.25000000  0.25000000  0.16616800  1
  Se  Se14  1  0.75000000  0.25000000  0.33383200  1
  Se  Se15  1  0.73446750  0.08452850  0.00000000  1
  Se  Se16  1  0.76553250  0.41547150  0.00000000  1
  Se  Se17  1  0.23446750  0.41547150  0.50000000  1
  Se  Se18  1  0.26553250  0.08452850  0.50000000  1
  Se  Se19  1  0.75000000  0.25000000  0.66616800  1
  Se  Se20  1  0.75000000  0.75000000  0.83383200  1
  Se  Se21  1  0.75000000  0.75000000  0.16616800  1
  Se  Se22  1  0.25000000  0.75000000  0.33383200  1
  Se  Se23  1  0.23446750  0.58452850  0.00000000  1
  Se  Se24  1  0.26553250  0.91547150  0.00000000  1
  Se  Se25  1  0.73446750  0.91547150  0.50000000  1
  Se  Se26  1  0.76553250  0.58452850  0.50000000  1
  Se  Se27  1  0.25000000  0.75000000  0.66616800  1
