# generated using pymatgen
data_KAl11O17
_symmetry_space_group_name_H-M   'P 1'
_cell_length_a   5.65559400
_cell_length_b   9.78112400
_cell_length_c   22.90910700
_cell_angle_alpha   90.00000000
_cell_angle_beta   90.00000000
_cell_angle_gamma   90.00000000
_symmetry_Int_Tables_number   1
_chemical_formula_structural   KAl11O17
_chemical_formula_sum   'K4 Al44 O68'
_cell_volume   1267.28749778
_cell_formula_units_Z   4
loop_
 _symmetry_equiv_pos_site_id
 _symmetry_equiv_pos_as_xyz
  1  'x, y, z'
loop_
 _atom_site_type_symbol
 _atom_site_label
 _atom_site_symmetry_multiplicity
 _atom_site_fract_x
 _atom_site_fract_y
 _atom_site_fract_z
 _atom_site_occupancy
  K  K0  1  0.50000000  0.68445700  0.75000000  1
  K  K1  1  0.50000000  0.31554300  0.25000000  1
  K  K2  1  0.00000000  0.18445700  0.75000000  1
  K  K3  1  0.00000000  0.81554300  0.25000000  1
  Al  Al4  1  0.50000000  0.83257200  0.89432100  1
  Al  Al5  1  0.50000000  0.83257200  0.60567900  1
  Al  Al6  1  0.50000000  0.66814100  0.17525500  1
  Al  Al7  1  0.50000000  0.66668400  0.02477900  1
  Al  Al8  1  0.50000000  0.00000000  0.00000000  1
  Al  Al9  1  0.50000000  0.66814100  0.32474500  1
  Al  Al10  1  0.50000000  0.00000000  0.50000000  1
  Al  Al11  1  0.50000000  0.66668400  0.47522100  1
  Al  Al12  1  0.75157550  0.08322950  0.60642200  1
  Al  Al13  1  0.75157550  0.08322950  0.89357800  1
  Al  Al14  1  0.24842450  0.08322950  0.89357800  1
  Al  Al15  1  0.24842450  0.08322950  0.60642200  1
  Al  Al16  1  0.75157550  0.91677050  0.39357800  1
  Al  Al17  1  0.75157550  0.91677050  0.10642200  1
  Al  Al18  1  0.24842450  0.91677050  0.39357800  1
  Al  Al19  1  0.50000000  0.33185900  0.67525500  1
  Al  Al20  1  0.50000000  0.33185900  0.82474500  1
  Al  Al21  1  0.50000000  0.33331600  0.52477900  1
  Al  Al22  1  0.50000000  0.33331600  0.97522100  1
  Al  Al23  1  0.24842450  0.91677050  0.10642200  1
  Al  Al24  1  0.50000000  0.16742800  0.10567900  1
  Al  Al25  1  0.50000000  0.16742800  0.39432100  1
  Al  Al26  1  0.00000000  0.33257200  0.89432100  1
  Al  Al27  1  0.00000000  0.33257200  0.60567900  1
  Al  Al28  1  0.00000000  0.16814100  0.17525500  1
  Al  Al29  1  0.00000000  0.16668400  0.02477900  1
  Al  Al30  1  0.00000000  0.50000000  0.00000000  1
  Al  Al31  1  0.00000000  0.16814100  0.32474500  1
  Al  Al32  1  0.00000000  0.50000000  0.50000000  1
  Al  Al33  1  0.00000000  0.16668400  0.47522100  1
  Al  Al34  1  0.25157550  0.58322950  0.60642200  1
  Al  Al35  1  0.25157550  0.58322950  0.89357800  1
  Al  Al36  1  0.74842450  0.58322950  0.89357800  1
  Al  Al37  1  0.74842450  0.58322950  0.60642200  1
  Al  Al38  1  0.25157550  0.41677050  0.39357800  1
  Al  Al39  1  0.25157550  0.41677050  0.10642200  1
  Al  Al40  1  0.74842450  0.41677050  0.39357800  1
  Al  Al41  1  0.00000000  0.83185900  0.67525500  1
  Al  Al42  1  0.00000000  0.83185900  0.82474500  1
  Al  Al43  1  0.00000000  0.83331600  0.52477900  1
  Al  Al44  1  0.00000000  0.83331600  0.97522100  1
  Al  Al45  1  0.74842450  0.41677050  0.10642200  1
  Al  Al46  1  0.00000000  0.66742800  0.10567900  1
  Al  Al47  1  0.00000000  0.66742800  0.39432100  1
  O  O48  1  0.50000000  0.84299200  0.04942200  1
  O  O49  1  0.50000000  0.84299200  0.45057800  1
  O  O50  1  0.25411250  0.74895050  0.64468400  1
  O  O51  1  0.25411250  0.74895050  0.85531600  1
  O  O52  1  0.50000000  0.67854700  0.25000000  1
  O  O53  1  0.73570600  0.07848600  0.45043000  1
  O  O54  1  0.50000000  0.00020700  0.14092300  1
  O  O55  1  0.50000000  0.00020700  0.35907700  1
  O  O56  1  0.50000000  0.66597200  0.55521700  1
  O  O57  1  0.50000000  0.99979300  0.85907700  1
  O  O58  1  0.50000000  0.99979300  0.64092300  1
  O  O59  1  0.50000000  0.66597200  0.94478300  1
  O  O60  1  0.73570600  0.07848600  0.04957000  1
  O  O61  1  0.74588750  0.74895050  0.85531600  1
  O  O62  1  0.74588750  0.74895050  0.64468400  1
  O  O63  1  0.73570600  0.92151400  0.54957000  1
  O  O64  1  0.73570600  0.92151400  0.95043000  1
  O  O65  1  0.50000000  0.50200600  0.64584900  1
  O  O66  1  0.50000000  0.50200600  0.85415100  1
  O  O67  1  0.50000000  0.49799400  0.35415100  1
  O  O68  1  0.50000000  0.49799400  0.14584900  1
  O  O69  1  0.26429400  0.07848600  0.04957000  1
  O  O70  1  0.26429400  0.07848600  0.45043000  1
  O  O71  1  0.25411250  0.25104950  0.35531600  1
  O  O72  1  0.50000000  0.33402800  0.44478300  1
  O  O73  1  0.25411250  0.25104950  0.14468400  1
  O  O74  1  0.26429400  0.92151400  0.95043000  1
  O  O75  1  0.26429400  0.92151400  0.54957000  1
  O  O76  1  0.50000000  0.33402800  0.05521700  1
  O  O77  1  0.50000000  0.32145300  0.75000000  1
  O  O78  1  0.74588750  0.25104950  0.14468400  1
  O  O79  1  0.74588750  0.25104950  0.35531600  1
  O  O80  1  0.50000000  0.15700800  0.95057800  1
  O  O81  1  0.50000000  0.15700800  0.54942200  1
  O  O82  1  0.00000000  0.34299200  0.04942200  1
  O  O83  1  0.00000000  0.34299200  0.45057800  1
  O  O84  1  0.75411250  0.24895050  0.64468400  1
  O  O85  1  0.75411250  0.24895050  0.85531600  1
  O  O86  1  0.00000000  0.17854700  0.25000000  1
  O  O87  1  0.23570600  0.57848600  0.45043000  1
  O  O88  1  0.00000000  0.50020700  0.14092300  1
  O  O89  1  0.00000000  0.50020700  0.35907700  1
  O  O90  1  0.00000000  0.16597200  0.55521700  1
  O  O91  1  0.00000000  0.49979300  0.85907700  1
  O  O92  1  0.00000000  0.49979300  0.64092300  1
  O  O93  1  0.00000000  0.16597200  0.94478300  1
  O  O94  1  0.23570600  0.57848600  0.04957000  1
  O  O95  1  0.24588750  0.24895050  0.85531600  1
  O  O96  1  0.24588750  0.24895050  0.64468400  1
  O  O97  1  0.23570600  0.42151400  0.54957000  1
  O  O98  1  0.23570600  0.42151400  0.95043000  1
  O  O99  1  0.00000000  0.00200600  0.64584900  1
  O  O100  1  0.00000000  0.00200600  0.85415100  1
  O  O101  1  0.00000000  0.99799400  0.35415100  1
  O  O102  1  0.00000000  0.99799400  0.14584900  1
  O  O103  1  0.76429400  0.57848600  0.04957000  1
  O  O104  1  0.76429400  0.57848600  0.45043000  1
  O  O105  1  0.75411250  0.75104950  0.35531600  1
  O  O106  1  0.00000000  0.83402800  0.44478300  1
  O  O107  1  0.75411250  0.75104950  0.14468400  1
  O  O108  1  0.76429400  0.42151400  0.95043000  1
  O  O109  1  0.76429400  0.42151400  0.54957000  1
  O  O110  1  0.00000000  0.83402800  0.05521700  1
  O  O111  1  0.00000000  0.82145300  0.75000000  1
  O  O112  1  0.24588750  0.75104950  0.14468400  1
  O  O113  1  0.24588750  0.75104950  0.35531600  1
  O  O114  1  0.00000000  0.65700800  0.95057800  1
  O  O115  1  0.00000000  0.65700800  0.54942200  1
