# generated using pymatgen
data_Ti3N2O3
_symmetry_space_group_name_H-M   'P 1'
_cell_length_a   9.87694600
_cell_length_b   3.81655000
_cell_length_c   9.97358443
_cell_angle_alpha   90.00000000
_cell_angle_beta   90.50306300
_cell_angle_gamma   90.00000000
_symmetry_Int_Tables_number   1
_chemical_formula_structural   Ti3N2O3
_chemical_formula_sum   'Ti12 N8 O12'
_cell_volume   375.94833356
_cell_formula_units_Z   4
loop_
 _symmetry_equiv_pos_site_id
 _symmetry_equiv_pos_as_xyz
  1  'x, y, z'
loop_
 _atom_site_type_symbol
 _atom_site_label
 _atom_site_symmetry_multiplicity
 _atom_site_fract_x
 _atom_site_fract_y
 _atom_site_fract_z
 _atom_site_occupancy
  Ti  Ti0  1  0.80830000  0.00000000  0.75131200  1
  Ti  Ti1  1  0.85576000  0.00000000  0.05293700  1
  Ti  Ti2  1  0.86530400  0.00000000  0.44695400  1
  Ti  Ti3  1  0.70246700  0.50000000  0.25281100  1
  Ti  Ti4  1  0.64394800  0.50000000  0.95189200  1
  Ti  Ti5  1  0.63532500  0.50000000  0.55678300  1
  Ti  Ti6  1  0.30830000  0.50000000  0.75131200  1
  Ti  Ti7  1  0.35576000  0.50000000  0.05293700  1
  Ti  Ti8  1  0.36530400  0.50000000  0.44695400  1
  Ti  Ti9  1  0.20246700  0.00000000  0.25281100  1
  Ti  Ti10  1  0.14394800  0.00000000  0.95189200  1
  Ti  Ti11  1  0.13532500  0.00000000  0.55678300  1
  N  N12  1  0.69398900  0.00000000  0.92311500  1
  N  N13  1  0.95417500  0.00000000  0.61825500  1
  N  N14  1  0.80526900  0.50000000  0.42474700  1
  N  N15  1  0.80748200  0.50000000  0.07794500  1
  N  N16  1  0.19398900  0.50000000  0.92311500  1
  N  N17  1  0.45417500  0.50000000  0.61825500  1
  N  N18  1  0.30526900  0.00000000  0.42474700  1
  N  N19  1  0.30748200  0.00000000  0.07794500  1
  O  O20  1  0.68477800  0.00000000  0.57568300  1
  O  O21  1  0.75269800  0.00000000  0.24708900  1
  O  O22  1  0.95417200  0.00000000  0.88235700  1
  O  O23  1  0.74583300  0.50000000  0.74194900  1
  O  O24  1  0.54586300  0.50000000  0.11724000  1
  O  O25  1  0.54462900  0.50000000  0.37893200  1
  O  O26  1  0.18477800  0.50000000  0.57568300  1
  O  O27  1  0.25269800  0.50000000  0.24708900  1
  O  O28  1  0.45417200  0.50000000  0.88235700  1
  O  O29  1  0.24583300  0.00000000  0.74194900  1
  O  O30  1  0.04586300  0.00000000  0.11724000  1
  O  O31  1  0.04462900  0.00000000  0.37893200  1
