# generated using pymatgen
data_LiH2N3O
_symmetry_space_group_name_H-M   'P 1'
_cell_length_a   9.31468613
_cell_length_b   9.31468613
_cell_length_c   5.62595200
_cell_angle_alpha   90.00000000
_cell_angle_beta   90.00000000
_cell_angle_gamma   120.00000000
_symmetry_Int_Tables_number   1
_chemical_formula_structural   LiH2N3O
_chemical_formula_sum   'Li6 H12 N18 O6'
_cell_volume   422.73003421
_cell_formula_units_Z   6
loop_
 _symmetry_equiv_pos_site_id
 _symmetry_equiv_pos_as_xyz
  1  'x, y, z'
loop_
 _atom_site_type_symbol
 _atom_site_label
 _atom_site_symmetry_multiplicity
 _atom_site_fract_x
 _atom_site_fract_y
 _atom_site_fract_z
 _atom_site_occupancy
  Li  Li0  1  0.66666667  0.33333333  0.50000000  1
  Li  Li1  1  0.00000000  0.00000000  0.50000000  1
  Li  Li2  1  0.00000000  0.00000000  0.00000000  1
  Li  Li3  1  0.66666667  0.33333333  0.00000000  1
  Li  Li4  1  0.33333333  0.66666667  0.50000000  1
  Li  Li5  1  0.33333333  0.66666667  0.00000000  1
  H  H6  1  0.81040200  0.71200600  0.25000000  1
  H  H7  1  0.90160400  0.71200600  0.75000000  1
  H  H8  1  0.28799400  0.18959800  0.75000000  1
  H  H9  1  0.28799400  0.09839600  0.25000000  1
  H  H10  1  0.18959800  0.90160400  0.25000000  1
  H  H11  1  0.09839600  0.81040200  0.75000000  1
  H  H12  1  0.90160400  0.18959800  0.25000000  1
  H  H13  1  0.81040200  0.09839600  0.75000000  1
  H  H14  1  0.71200600  0.90160400  0.75000000  1
  H  H15  1  0.71200600  0.81040200  0.25000000  1
  H  H16  1  0.09839600  0.28799400  0.25000000  1
  H  H17  1  0.18959800  0.28799400  0.75000000  1
  N  N18  1  0.59274550  0.59274550  0.75000000  1
  N  N19  1  0.40725450  0.40725450  0.25000000  1
  N  N20  1  0.66874300  0.52193200  0.75000000  1
  N  N21  1  0.85318900  0.52193200  0.25000000  1
  N  N22  1  0.47806800  0.33125700  0.25000000  1
  N  N23  1  0.47806800  0.14681100  0.75000000  1
  N  N24  1  0.85318900  0.33125700  0.75000000  1
  N  N25  1  0.66874300  0.14681100  0.25000000  1
  N  N26  1  0.40725450  0.00000000  0.75000000  1
  N  N27  1  0.59274550  0.00000000  0.25000000  1
  N  N28  1  0.33125700  0.85318900  0.75000000  1
  N  N29  1  0.14681100  0.66874300  0.25000000  1
  N  N30  1  0.52193200  0.85318900  0.25000000  1
  N  N31  1  0.00000000  0.59274550  0.25000000  1
  N  N32  1  0.00000000  0.40725450  0.75000000  1
  N  N33  1  0.52193200  0.66874300  0.75000000  1
  N  N34  1  0.14681100  0.47806800  0.75000000  1
  N  N35  1  0.33125700  0.47806800  0.25000000  1
  O  O36  1  0.82404150  0.82404150  0.25000000  1
  O  O37  1  0.17595850  0.17595850  0.75000000  1
  O  O38  1  0.17595850  0.00000000  0.25000000  1
  O  O39  1  0.00000000  0.82404150  0.75000000  1
  O  O40  1  0.82404150  0.00000000  0.75000000  1
  O  O41  1  0.00000000  0.17595850  0.25000000  1
