# generated using pymatgen
data_TlSbF6
_symmetry_space_group_name_H-M   'P 1'
_cell_length_a   7.95318866
_cell_length_b   7.95318866
_cell_length_c   8.02121920
_cell_angle_alpha   90.00000000
_cell_angle_beta   90.00000000
_cell_angle_gamma   120.00000000
_symmetry_Int_Tables_number   1
_chemical_formula_structural   TlSbF6
_chemical_formula_sum   'Tl3 Sb3 F18'
_cell_volume   439.39345734
_cell_formula_units_Z   3
loop_
 _symmetry_equiv_pos_site_id
 _symmetry_equiv_pos_as_xyz
  1  'x, y, z'
loop_
 _atom_site_type_symbol
 _atom_site_label
 _atom_site_symmetry_multiplicity
 _atom_site_fract_x
 _atom_site_fract_y
 _atom_site_fract_z
 _atom_site_occupancy
  Tl  Tl0  1  0.00000000  0.00000000  0.00000000  1
  Tl  Tl1  1  0.66666667  0.33333333  0.33333333  1
  Tl  Tl2  1  0.33333333  0.66666667  0.66666667  1
  Sb  Sb3  1  0.00000000  0.00000000  0.50000000  1
  Sb  Sb4  1  0.66666667  0.33333333  0.83333333  1
  Sb  Sb5  1  0.33333333  0.66666667  0.16666667  1
  F  F6  1  0.11272700  0.88727300  0.64142400  1
  F  F7  1  0.11272700  0.22545400  0.64142400  1
  F  F8  1  0.88727300  0.77454600  0.35857600  1
  F  F9  1  0.88727300  0.11272700  0.35857600  1
  F  F10  1  0.22545400  0.11272700  0.35857600  1
  F  F11  1  0.77454600  0.88727300  0.64142400  1
  F  F12  1  0.77939367  0.22060633  0.97475733  1
  F  F13  1  0.77939367  0.55878733  0.97475733  1
  F  F14  1  0.55393967  0.10787933  0.69190933  1
  F  F15  1  0.55393967  0.44606033  0.69190933  1
  F  F16  1  0.89212067  0.44606033  0.69190933  1
  F  F17  1  0.44121267  0.22060633  0.97475733  1
  F  F18  1  0.44606033  0.55393967  0.30809067  1
  F  F19  1  0.44606033  0.89212067  0.30809067  1
  F  F20  1  0.22060633  0.44121267  0.02524267  1
  F  F21  1  0.22060633  0.77939367  0.02524267  1
  F  F22  1  0.55878733  0.77939367  0.02524267  1
  F  F23  1  0.10787933  0.55393967  0.30809067  1
