# generated using pymatgen
data_Ba4(PtO3)3
_symmetry_space_group_name_H-M   'P 1'
_cell_length_a   8.75712200
_cell_length_b   10.19921307
_cell_length_c   10.28029544
_cell_angle_alpha   119.63548696
_cell_angle_beta   89.94061027
_cell_angle_gamma   90.23675162
_symmetry_Int_Tables_number   1
_chemical_formula_structural   Ba4(PtO3)3
_chemical_formula_sum   'Ba12 Pt9 O27'
_cell_volume   798.07517096
_cell_formula_units_Z   3
loop_
 _symmetry_equiv_pos_site_id
 _symmetry_equiv_pos_as_xyz
  1  'x, y, z'
loop_
 _atom_site_type_symbol
 _atom_site_label
 _atom_site_symmetry_multiplicity
 _atom_site_fract_x
 _atom_site_fract_y
 _atom_site_fract_z
 _atom_site_occupancy
  Ba  Ba0  1  0.75204800  0.31037500  0.33577200  1
  Ba  Ba1  1  0.99947900  0.65359300  0.66565500  1
  Ba  Ba2  1  0.50122900  0.66842000  0.67759500  1
  Ba  Ba3  1  0.75536600  0.01576500  0.69379300  1
  Ba  Ba4  1  0.74982800  0.67259300  0.98675800  1
  Ba  Ba5  1  0.50048700  0.35515200  0.00198100  1
  Ba  Ba6  1  0.99923500  0.37273600  0.00225000  1
  Ba  Ba7  1  0.24935100  0.68158600  0.00490900  1
  Ba  Ba8  1  0.24773400  0.33365400  0.31313200  1
  Ba  Ba9  1  0.49982600  0.99274400  0.32935600  1
  Ba  Ba10  1  0.99757200  0.98884300  0.35072800  1
  Ba  Ba11  1  0.24718900  0.97054800  0.66950900  1
  Pt  Pt12  1  0.66109000  0.00302400  0.99726900  1
  Pt  Pt13  1  0.23540400  0.25336900  0.59293000  1
  Pt  Pt14  1  0.89783600  0.33186400  0.66817900  1
  Pt  Pt15  1  0.57425900  0.33251200  0.66958300  1
  Pt  Pt16  1  0.99950700  0.07871500  0.07488900  1
  Pt  Pt17  1  0.42621400  0.66770800  0.32958500  1
  Pt  Pt18  1  0.10260700  0.66727500  0.33183300  1
  Pt  Pt19  1  0.76475400  0.66502600  0.40750300  1
  Pt  Pt20  1  0.33790900  0.00059400  0.99652000  1
  O  O21  1  0.49835500  0.15894900  0.15303300  1
  O  O22  1  0.18286300  0.00366400  0.14790900  1
  O  O23  1  0.05044600  0.31989900  0.51137400  1
  O  O24  1  0.42023000  0.32392400  0.51703000  1
  O  O25  1  0.73623800  0.16638600  0.51583300  1
  O  O26  1  0.73748100  0.47163200  0.65466500  1
  O  O27  1  0.05217100  0.18246200  0.67364000  1
  O  O28  1  0.41553900  0.18879400  0.67717800  1
  O  O29  1  0.73709100  0.33817400  0.82164600  1
  O  O30  1  0.46341400  0.50724000  0.83377900  1
  O  O31  1  0.01419500  0.50990500  0.83132000  1
  O  O32  1  0.22739000  0.82154700  0.82660200  1
  O  O33  1  0.18109800  0.15177300  0.99706000  1
  O  O34  1  0.50022800  0.85949700  0.00241100  1
  O  O35  1  0.81768800  0.15820000  0.00466300  1
  O  O36  1  0.81467300  0.00178600  0.14779900  1
  O  O37  1  0.98458600  0.68234800  0.16884100  1
  O  O38  1  0.53963700  0.68247000  0.16793800  1
  O  O39  1  0.26221700  0.52115500  0.17812200  1
  O  O40  1  0.58374300  0.51687400  0.32162500  1
  O  O41  1  0.94678900  0.51524000  0.32942700  1
  O  O42  1  0.26391100  0.82233300  0.34425800  1
  O  O43  1  0.26400800  0.65204300  0.47970500  1
  O  O44  1  0.58018400  0.81182600  0.48254600  1
  O  O45  1  0.95245100  0.81185600  0.49290700  1
  O  O46  1  0.77490100  0.83155900  0.82481400  1
  O  O47  1  0.49987100  0.00757400  0.85251900  1
