# generated using pymatgen
data_TiV(PO4)2
_symmetry_space_group_name_H-M   'P 1'
_cell_length_a   8.68139095
_cell_length_b   8.68139095
_cell_length_c   20.98510929
_cell_angle_alpha   90.00000000
_cell_angle_beta   90.00000000
_cell_angle_gamma   120.00000000
_symmetry_Int_Tables_number   1
_chemical_formula_structural   TiV(PO4)2
_chemical_formula_sum   'Ti9 V9 P18 O72'
_cell_volume   1369.68435776
_cell_formula_units_Z   9
loop_
 _symmetry_equiv_pos_site_id
 _symmetry_equiv_pos_as_xyz
  1  'x, y, z'
loop_
 _atom_site_type_symbol
 _atom_site_label
 _atom_site_symmetry_multiplicity
 _atom_site_fract_x
 _atom_site_fract_y
 _atom_site_fract_z
 _atom_site_occupancy
  Ti  Ti0  1  0.33333333  0.66666667  0.31164167  1
  Ti  Ti1  1  0.33333333  0.66666667  0.52311967  1
  Ti  Ti2  1  0.33333333  0.66666667  0.02157567  1
  Ti  Ti3  1  0.00000000  0.00000000  0.64497500  1
  Ti  Ti4  1  0.00000000  0.00000000  0.85645300  1
  Ti  Ti5  1  0.00000000  0.00000000  0.35490900  1
  Ti  Ti6  1  0.66666667  0.33333333  0.97830833  1
  Ti  Ti7  1  0.66666667  0.33333333  0.18978633  1
  Ti  Ti8  1  0.66666667  0.33333333  0.68824233  1
  V  V9  1  0.33333333  0.66666667  0.66593667  1
  V  V10  1  0.33333333  0.66666667  0.80833967  1
  V  V11  1  0.33333333  0.66666667  0.16766667  1
  V  V12  1  0.00000000  0.00000000  0.99927000  1
  V  V13  1  0.00000000  0.00000000  0.14167300  1
  V  V14  1  0.00000000  0.00000000  0.50100000  1
  V  V15  1  0.66666667  0.33333333  0.33260333  1
  V  V16  1  0.66666667  0.33333333  0.47500633  1
  V  V17  1  0.66666667  0.33333333  0.83433333  1
  P  P18  1  0.00032667  0.29355133  0.24948933  1
  P  P19  1  0.70644867  0.70677533  0.24948933  1
  P  P20  1  0.29322467  0.99967333  0.24948933  1
  P  P21  1  0.37389867  0.33410833  0.08325633  1
  P  P22  1  0.96020967  0.62610133  0.08325633  1
  P  P23  1  0.66589167  0.03979033  0.08325633  1
  P  P24  1  0.66699333  0.62688467  0.58282267  1
  P  P25  1  0.37311533  0.04010867  0.58282267  1
  P  P26  1  0.95989133  0.33300667  0.58282267  1
  P  P27  1  0.04056533  0.66744167  0.41658967  1
  P  P28  1  0.62687633  0.95943467  0.41658967  1
  P  P29  1  0.33255833  0.37312367  0.41658967  1
  P  P30  1  0.33366000  0.96021800  0.91615600  1
  P  P31  1  0.03978200  0.37344200  0.91615600  1
  P  P32  1  0.62655800  0.66634000  0.91615600  1
  P  P33  1  0.70723200  0.00077500  0.74992300  1
  P  P34  1  0.29354300  0.29276800  0.74992300  1
  P  P35  1  0.99922500  0.70645700  0.74992300  1
  O  O36  1  0.14115733  0.47957067  0.97686367  1
  O  O37  1  0.52042933  0.66158667  0.97686367  1
  O  O38  1  0.33841333  0.85884267  0.97686367  1
  O  O39  1  0.83261100  0.31508500  0.25698700  1
  O  O40  1  0.99726300  0.19915700  0.18949600  1
  O  O41  1  0.16670133  0.48527967  0.24642967  1
  O  O42  1  0.68491500  0.51752600  0.25698700  1
  O  O43  1  0.51472033  0.68142167  0.24642967  1
  O  O44  1  0.13999067  0.66128733  0.47682933  1
  O  O45  1  0.31857833  0.83329867  0.24642967  1
  O  O46  1  0.18915467  0.16992333  0.07400633  1
  O  O47  1  0.52129667  0.86000933  0.47682933  1
  O  O48  1  0.80084300  0.79810600  0.18949600  1
  O  O49  1  0.48247400  0.16738900  0.25698700  1
  O  O50  1  0.35446333  0.50276267  0.08997567  1
  O  O51  1  0.20189400  0.00273700  0.18949600  1
  O  O52  1  0.14829933  0.64553667  0.08997567  1
  O  O53  1  0.98076867  0.81084533  0.07400633  1
  O  O54  1  0.49723733  0.85170067  0.08997567  1
  O  O55  1  0.33871267  0.47870333  0.47682933  1
  O  O56  1  0.83007667  0.01923133  0.07400633  1
  O  O57  1  0.32167567  0.47254633  0.35724033  1
  O  O58  1  0.15087067  0.67832433  0.35724033  1
  O  O59  1  0.52745367  0.84912933  0.35724033  1
  O  O60  1  0.80782400  0.81290400  0.31019700  1
  O  O61  1  0.18709600  0.99492000  0.31019700  1
  O  O62  1  0.00508000  0.19217600  0.31019700  1
  O  O63  1  0.49927767  0.64841833  0.59032033  1
  O  O64  1  0.66392967  0.53249033  0.52282933  1
  O  O65  1  0.83336800  0.81861300  0.57976300  1
  O  O66  1  0.35158167  0.85085933  0.59032033  1
  O  O67  1  0.18138700  0.01475500  0.57976300  1
  O  O68  1  0.80665733  0.99462067  0.81016267  1
  O  O69  1  0.98524500  0.16663200  0.57976300  1
  O  O70  1  0.85582133  0.50325667  0.40733967  1
  O  O71  1  0.18796333  0.19334267  0.81016267  1
  O  O72  1  0.46750967  0.13143933  0.52282933  1
  O  O73  1  0.14914067  0.50072233  0.59032033  1
  O  O74  1  0.02113000  0.83609600  0.42330900  1
  O  O75  1  0.86856067  0.33607033  0.52282933  1
  O  O76  1  0.81496600  0.97887000  0.42330900  1
  O  O77  1  0.64743533  0.14417867  0.40733967  1
  O  O78  1  0.16390400  0.18503400  0.42330900  1
  O  O79  1  0.00537933  0.81203667  0.81016267  1
  O  O80  1  0.49674333  0.35256467  0.40733967  1
  O  O81  1  0.98834233  0.80587967  0.69057367  1
  O  O82  1  0.81753733  0.01165767  0.69057367  1
  O  O83  1  0.19412033  0.18246267  0.69057367  1
  O  O84  1  0.47449067  0.14623733  0.64353033  1
  O  O85  1  0.85376267  0.32825333  0.64353033  1
  O  O86  1  0.67174667  0.52550933  0.64353033  1
  O  O87  1  0.16594433  0.98175167  0.92365367  1
  O  O88  1  0.33059633  0.86582367  0.85616267  1
  O  O89  1  0.50003467  0.15194633  0.91309633  1
  O  O90  1  0.01824833  0.18419267  0.92365367  1
  O  O91  1  0.84805367  0.34808833  0.91309633  1
  O  O92  1  0.47332400  0.32795400  0.14349600  1
  O  O93  1  0.65191167  0.49996533  0.91309633  1
  O  O94  1  0.52248800  0.83659000  0.74067300  1
  O  O95  1  0.85463000  0.52667600  0.14349600  1
  O  O96  1  0.13417633  0.46477267  0.85616267  1
  O  O97  1  0.81580733  0.83405567  0.92365367  1
  O  O98  1  0.68779667  0.16942933  0.75664233  1
  O  O99  1  0.53522733  0.66940367  0.85616267  1
  O  O100  1  0.48163267  0.31220333  0.75664233  1
  O  O101  1  0.31410200  0.47751200  0.74067300  1
  O  O102  1  0.83057067  0.51836733  0.75664233  1
  O  O103  1  0.67204600  0.14537000  0.14349600  1
  O  O104  1  0.16341000  0.68589800  0.74067300  1
  O  O105  1  0.65500900  0.13921300  0.02390700  1
  O  O106  1  0.48420400  0.34499100  0.02390700  1
  O  O107  1  0.86078700  0.51579600  0.02390700  1
