# generated using pymatgen
data_Sr5Cd2Sb5F
_symmetry_space_group_name_H-M   'P 1'
_cell_length_a   4.80092000
_cell_length_b   22.43918200
_cell_length_c   14.90723400
_cell_angle_alpha   90.00000000
_cell_angle_beta   90.00000000
_cell_angle_gamma   90.00000000
_symmetry_Int_Tables_number   1
_chemical_formula_structural   Sr5Cd2Sb5F
_chemical_formula_sum   'Sr20 Cd8 Sb20 F4'
_cell_volume   1605.93720249
_cell_formula_units_Z   4
loop_
 _symmetry_equiv_pos_site_id
 _symmetry_equiv_pos_as_xyz
  1  'x, y, z'
loop_
 _atom_site_type_symbol
 _atom_site_label
 _atom_site_symmetry_multiplicity
 _atom_site_fract_x
 _atom_site_fract_y
 _atom_site_fract_z
 _atom_site_occupancy
  Sr  Sr0  1  0.00000000  0.09992900  0.75000000  1
  Sr  Sr1  1  0.50000000  0.40007100  0.25000000  1
  Sr  Sr2  1  0.50000000  0.40223100  0.75000000  1
  Sr  Sr3  1  0.00000000  0.09776900  0.25000000  1
  Sr  Sr4  1  0.00000000  0.27124700  0.11981400  1
  Sr  Sr5  1  0.50000000  0.22875300  0.61981400  1
  Sr  Sr6  1  0.50000000  0.22875300  0.88018600  1
  Sr  Sr7  1  0.00000000  0.27124700  0.38018600  1
  Sr  Sr8  1  0.00000000  0.00000000  0.50000000  1
  Sr  Sr9  1  0.00000000  0.00000000  0.00000000  1
  Sr  Sr10  1  0.50000000  0.59992900  0.75000000  1
  Sr  Sr11  1  0.00000000  0.90007100  0.25000000  1
  Sr  Sr12  1  0.00000000  0.90223100  0.75000000  1
  Sr  Sr13  1  0.50000000  0.59776900  0.25000000  1
  Sr  Sr14  1  0.50000000  0.77124700  0.11981400  1
  Sr  Sr15  1  0.00000000  0.72875300  0.61981400  1
  Sr  Sr16  1  0.00000000  0.72875300  0.88018600  1
  Sr  Sr17  1  0.50000000  0.77124700  0.38018600  1
  Sr  Sr18  1  0.50000000  0.50000000  0.50000000  1
  Sr  Sr19  1  0.50000000  0.50000000  0.00000000  1
  Cd  Cd20  1  0.00000000  0.36844100  0.58626400  1
  Cd  Cd21  1  0.50000000  0.13155900  0.08626400  1
  Cd  Cd22  1  0.50000000  0.13155900  0.41373600  1
  Cd  Cd23  1  0.00000000  0.36844100  0.91373600  1
  Cd  Cd24  1  0.50000000  0.86844100  0.58626400  1
  Cd  Cd25  1  0.00000000  0.63155900  0.08626400  1
  Cd  Cd26  1  0.00000000  0.63155900  0.41373600  1
  Cd  Cd27  1  0.50000000  0.86844100  0.91373600  1
  Sb  Sb28  1  0.00000000  0.49496500  0.65421300  1
  Sb  Sb29  1  0.50000000  0.00503500  0.15421300  1
  Sb  Sb30  1  0.50000000  0.00503500  0.34578700  1
  Sb  Sb31  1  0.00000000  0.49496500  0.84578700  1
  Sb  Sb32  1  0.00000000  0.29328400  0.75000000  1
  Sb  Sb33  1  0.50000000  0.20671600  0.25000000  1
  Sb  Sb34  1  0.00000000  0.14906600  0.52019700  1
  Sb  Sb35  1  0.50000000  0.35093400  0.02019700  1
  Sb  Sb36  1  0.50000000  0.35093400  0.47980300  1
  Sb  Sb37  1  0.00000000  0.14906600  0.97980300  1
  Sb  Sb38  1  0.50000000  0.99496500  0.65421300  1
  Sb  Sb39  1  0.00000000  0.50503500  0.15421300  1
  Sb  Sb40  1  0.00000000  0.50503500  0.34578700  1
  Sb  Sb41  1  0.50000000  0.99496500  0.84578700  1
  Sb  Sb42  1  0.50000000  0.79328400  0.75000000  1
  Sb  Sb43  1  0.00000000  0.70671600  0.25000000  1
  Sb  Sb44  1  0.50000000  0.64906600  0.52019700  1
  Sb  Sb45  1  0.00000000  0.85093400  0.02019700  1
  Sb  Sb46  1  0.00000000  0.85093400  0.47980300  1
  Sb  Sb47  1  0.50000000  0.64906600  0.97980300  1
  F  F48  1  0.50000000  0.15576300  0.75000000  1
  F  F49  1  0.00000000  0.34423700  0.25000000  1
  F  F50  1  0.00000000  0.65576300  0.75000000  1
  F  F51  1  0.50000000  0.84423700  0.25000000  1
