# generated using pymatgen
data_Ba3Er2Cu2PtO10
_symmetry_space_group_name_H-M   'P 1'
_cell_length_a   12.53920600
_cell_length_b   5.85798200
_cell_length_c   7.49914075
_cell_angle_alpha   90.00000000
_cell_angle_beta   105.76100971
_cell_angle_gamma   90.00000000
_symmetry_Int_Tables_number   1
_chemical_formula_structural   Ba3Er2Cu2PtO10
_chemical_formula_sum   'Ba6 Er4 Cu4 Pt2 O20'
_cell_volume   530.13511251
_cell_formula_units_Z   2
loop_
 _symmetry_equiv_pos_site_id
 _symmetry_equiv_pos_as_xyz
  1  'x, y, z'
loop_
 _atom_site_type_symbol
 _atom_site_label
 _atom_site_symmetry_multiplicity
 _atom_site_fract_x
 _atom_site_fract_y
 _atom_site_fract_z
 _atom_site_occupancy
  Ba  Ba0  1  0.00000000  0.00000000  0.00000000  1
  Ba  Ba1  1  0.65403700  0.50000000  0.54506300  1
  Ba  Ba2  1  0.84596300  0.00000000  0.45493700  1
  Ba  Ba3  1  0.50000000  0.50000000  0.00000000  1
  Ba  Ba4  1  0.15403700  0.00000000  0.54506300  1
  Ba  Ba5  1  0.34596300  0.50000000  0.45493700  1
  Er  Er6  1  0.81076100  0.50000000  0.12559100  1
  Er  Er7  1  0.68923900  0.00000000  0.87440900  1
  Er  Er8  1  0.31076100  0.00000000  0.12559100  1
  Er  Er9  1  0.18923900  0.50000000  0.87440900  1
  Cu  Cu10  1  0.91109900  0.50000000  0.80271900  1
  Cu  Cu11  1  0.58890100  0.00000000  0.19728100  1
  Cu  Cu12  1  0.41109900  0.00000000  0.80271900  1
  Cu  Cu13  1  0.08890100  0.50000000  0.19728100  1
  Pt  Pt14  1  0.00000000  0.50000000  0.50000000  1
  Pt  Pt15  1  0.50000000  0.00000000  0.50000000  1
  O  O16  1  0.83157500  0.50000000  0.44447300  1
  O  O17  1  0.66842500  0.00000000  0.55552700  1
  O  O18  1  0.68400900  0.77168200  0.12293100  1
  O  O19  1  0.81599100  0.27168200  0.87706900  1
  O  O20  1  0.81599100  0.72831800  0.87706900  1
  O  O21  1  0.68400900  0.22831800  0.12293100  1
  O  O22  1  0.51803650  0.78039450  0.71962400  1
  O  O23  1  0.98196350  0.28039450  0.28037600  1
  O  O24  1  0.51803650  0.21960550  0.71962400  1
  O  O25  1  0.98196350  0.71960550  0.28037600  1
  O  O26  1  0.33157500  0.00000000  0.44447300  1
  O  O27  1  0.16842500  0.50000000  0.55552700  1
  O  O28  1  0.18400900  0.27168200  0.12293100  1
  O  O29  1  0.31599100  0.77168200  0.87706900  1
  O  O30  1  0.31599100  0.22831800  0.87706900  1
  O  O31  1  0.18400900  0.72831800  0.12293100  1
  O  O32  1  0.01803650  0.28039450  0.71962400  1
  O  O33  1  0.48196350  0.78039450  0.28037600  1
  O  O34  1  0.01803650  0.71960550  0.71962400  1
  O  O35  1  0.48196350  0.21960550  0.28037600  1
