# generated using pymatgen
data_Fe2Sb(PO4)3
_symmetry_space_group_name_H-M   'P 1'
_cell_length_a   8.69003934
_cell_length_b   8.69003934
_cell_length_c   21.87803261
_cell_angle_alpha   90.00000000
_cell_angle_beta   90.00000000
_cell_angle_gamma   120.00000000
_symmetry_Int_Tables_number   1
_chemical_formula_structural   Fe2Sb(PO4)3
_chemical_formula_sum   'Fe12 Sb6 P18 O72'
_cell_volume   1430.81136829
_cell_formula_units_Z   6
loop_
 _symmetry_equiv_pos_site_id
 _symmetry_equiv_pos_as_xyz
  1  'x, y, z'
loop_
 _atom_site_type_symbol
 _atom_site_label
 _atom_site_symmetry_multiplicity
 _atom_site_fract_x
 _atom_site_fract_y
 _atom_site_fract_z
 _atom_site_occupancy
  Fe  Fe0  1  0.66666667  0.33333333  0.18417833  1
  Fe  Fe1  1  0.33333333  0.66666667  0.31582167  1
  Fe  Fe2  1  0.33333333  0.66666667  0.01751167  1
  Fe  Fe3  1  0.00000000  0.00000000  0.14915500  1
  Fe  Fe4  1  0.33333333  0.66666667  0.51751167  1
  Fe  Fe5  1  0.00000000  0.00000000  0.64915500  1
  Fe  Fe6  1  0.00000000  0.00000000  0.35084500  1
  Fe  Fe7  1  0.66666667  0.33333333  0.48248833  1
  Fe  Fe8  1  0.00000000  0.00000000  0.85084500  1
  Fe  Fe9  1  0.66666667  0.33333333  0.98248833  1
  Fe  Fe10  1  0.66666667  0.33333333  0.68417833  1
  Fe  Fe11  1  0.33333333  0.66666667  0.81582167  1
  Sb  Sb12  1  0.00000000  0.00000000  0.00000000  1
  Sb  Sb13  1  0.33333333  0.66666667  0.16666667  1
  Sb  Sb14  1  0.66666667  0.33333333  0.33333333  1
  Sb  Sb15  1  0.00000000  0.00000000  0.50000000  1
  Sb  Sb16  1  0.33333333  0.66666667  0.66666667  1
  Sb  Sb17  1  0.66666667  0.33333333  0.83333333  1
  P  P18  1  0.70926100  0.70926100  0.25000000  1
  P  P19  1  0.29073900  0.00000000  0.25000000  1
  P  P20  1  0.00000000  0.29073900  0.25000000  1
  P  P21  1  0.66666667  0.04259433  0.08333333  1
  P  P22  1  0.37592767  0.33333333  0.08333333  1
  P  P23  1  0.95740567  0.62407233  0.08333333  1
  P  P24  1  0.37592767  0.04259433  0.58333333  1
  P  P25  1  0.95740567  0.33333333  0.58333333  1
  P  P26  1  0.66666667  0.62407233  0.58333333  1
  P  P27  1  0.33333333  0.37592767  0.41666667  1
  P  P28  1  0.04259433  0.66666667  0.41666667  1
  P  P29  1  0.62407233  0.95740567  0.41666667  1
  P  P30  1  0.04259433  0.37592767  0.91666667  1
  P  P31  1  0.62407233  0.66666667  0.91666667  1
  P  P32  1  0.33333333  0.95740567  0.91666667  1
  P  P33  1  0.00000000  0.70926100  0.75000000  1
  P  P34  1  0.70926100  0.00000000  0.75000000  1
  P  P35  1  0.29073900  0.29073900  0.75000000  1
  O  O36  1  0.85911000  0.53172500  0.02466300  1
  O  O37  1  0.67261500  0.14089000  0.02466300  1
  O  O38  1  0.68795500  0.51882700  0.25205100  1
  O  O39  1  0.46827500  0.32738500  0.02466300  1
  O  O40  1  0.80160833  0.80755667  0.19132967  1
  O  O41  1  0.51882700  0.68795500  0.24794900  1
  O  O42  1  0.48117300  0.16912800  0.25205100  1
  O  O43  1  0.31204500  0.83087200  0.24794900  1
  O  O44  1  0.66071833  0.13494167  0.14200367  1
  O  O45  1  0.16912800  0.48117300  0.24794900  1
  O  O46  1  0.83579467  0.02128833  0.08128233  1
  O  O47  1  0.47422333  0.33928167  0.14200367  1
  O  O48  1  0.19244333  0.99405167  0.19132967  1
  O  O49  1  0.83087200  0.31204500  0.25205100  1
  O  O50  1  0.49753867  0.85216033  0.08538433  1
  O  O51  1  0.00594833  0.19839167  0.19132967  1
  O  O52  1  0.35462167  0.50246133  0.08538433  1
  O  O53  1  0.18549367  0.16420533  0.08128233  1
  O  O54  1  0.14783967  0.64537833  0.08538433  1
  O  O55  1  0.86505833  0.52577667  0.14200367  1
  O  O56  1  0.19839167  0.00594833  0.30867033  1
  O  O57  1  0.97871167  0.81450633  0.08128233  1
  O  O58  1  0.99405167  0.19244333  0.30867033  1
  O  O59  1  0.80755667  0.80160833  0.30867033  1
  O  O60  1  0.52577667  0.86505833  0.35799633  1
  O  O61  1  0.33928167  0.47422333  0.35799633  1
  O  O62  1  0.35462167  0.85216033  0.58538433  1
  O  O63  1  0.13494167  0.66071833  0.35799633  1
  O  O64  1  0.46827500  0.14089000  0.52466300  1
  O  O65  1  0.18549367  0.02128833  0.58128233  1
  O  O66  1  0.14783967  0.50246133  0.58538433  1
  O  O67  1  0.97871167  0.16420533  0.58128233  1
  O  O68  1  0.32738500  0.46827500  0.47533700  1
  O  O69  1  0.83579467  0.81450633  0.58128233  1
  O  O70  1  0.50246133  0.35462167  0.41461567  1
  O  O71  1  0.14089000  0.67261500  0.47533700  1
  O  O72  1  0.85911000  0.32738500  0.52466300  1
  O  O73  1  0.49753867  0.64537833  0.58538433  1
  O  O74  1  0.16420533  0.18549367  0.41871767  1
  O  O75  1  0.67261500  0.53172500  0.52466300  1
  O  O76  1  0.02128833  0.83579467  0.41871767  1
  O  O77  1  0.85216033  0.49753867  0.41461567  1
  O  O78  1  0.81450633  0.97871167  0.41871767  1
  O  O79  1  0.53172500  0.85911000  0.47533700  1
  O  O80  1  0.86505833  0.33928167  0.64200367  1
  O  O81  1  0.64537833  0.14783967  0.41461567  1
  O  O82  1  0.66071833  0.52577667  0.64200367  1
  O  O83  1  0.47422333  0.13494167  0.64200367  1
  O  O84  1  0.19244333  0.19839167  0.69132967  1
  O  O85  1  0.00594833  0.80755667  0.69132967  1
  O  O86  1  0.02128833  0.18549367  0.91871767  1
  O  O87  1  0.80160833  0.99405167  0.69132967  1
  O  O88  1  0.13494167  0.47422333  0.85799633  1
  O  O89  1  0.85216033  0.35462167  0.91461567  1
  O  O90  1  0.81450633  0.83579467  0.91871767  1
  O  O91  1  0.64537833  0.49753867  0.91461567  1
  O  O92  1  0.99405167  0.80160833  0.80867033  1
  O  O93  1  0.50246133  0.14783967  0.91461567  1
  O  O94  1  0.16912800  0.68795500  0.74794900  1
  O  O95  1  0.80755667  0.00594833  0.80867033  1
  O  O96  1  0.52577667  0.66071833  0.85799633  1
  O  O97  1  0.16420533  0.97871167  0.91871767  1
  O  O98  1  0.83087200  0.51882700  0.75205100  1
  O  O99  1  0.33928167  0.86505833  0.85799633  1
  O  O100  1  0.68795500  0.16912800  0.75205100  1
  O  O101  1  0.51882700  0.83087200  0.74794900  1
  O  O102  1  0.48117300  0.31204500  0.75205100  1
  O  O103  1  0.19839167  0.19244333  0.80867033  1
  O  O104  1  0.53172500  0.67261500  0.97533700  1
  O  O105  1  0.31204500  0.48117300  0.74794900  1
  O  O106  1  0.32738500  0.85911000  0.97533700  1
  O  O107  1  0.14089000  0.46827500  0.97533700  1
