# generated using pymatgen
data_Ca3N2
_symmetry_space_group_name_H-M   'P 1'
_cell_length_a   11.47552200
_cell_length_b   11.47552200
_cell_length_c   11.47552200
_cell_angle_alpha   90.00000000
_cell_angle_beta   90.00000000
_cell_angle_gamma   90.00000000
_symmetry_Int_Tables_number   1
_chemical_formula_structural   Ca3N2
_chemical_formula_sum   'Ca48 N32'
_cell_volume   1511.18401028
_cell_formula_units_Z   16
loop_
 _symmetry_equiv_pos_site_id
 _symmetry_equiv_pos_as_xyz
  1  'x, y, z'
loop_
 _atom_site_type_symbol
 _atom_site_label
 _atom_site_symmetry_multiplicity
 _atom_site_fract_x
 _atom_site_fract_y
 _atom_site_fract_z
 _atom_site_occupancy
  Ca  Ca0  1  0.88954850  0.15430450  0.11717850  1
  Ca  Ca1  1  0.88282150  0.38954850  0.34569550  1
  Ca  Ca2  1  0.61045150  0.15430450  0.88282150  1
  Ca  Ca3  1  0.11045150  0.34569550  0.11717850  1
  Ca  Ca4  1  0.11717850  0.11045150  0.34569550  1
  Ca  Ca5  1  0.15430450  0.11717850  0.88954850  1
  Ca  Ca6  1  0.34569550  0.88282150  0.38954850  1
  Ca  Ca7  1  0.15430450  0.88282150  0.61045150  1
  Ca  Ca8  1  0.88282150  0.61045150  0.15430450  1
  Ca  Ca9  1  0.38954850  0.34569550  0.88282150  1
  Ca  Ca10  1  0.11717850  0.88954850  0.15430450  1
  Ca  Ca11  1  0.34569550  0.11717850  0.11045150  1
  Ca  Ca12  1  0.34569550  0.61717850  0.88954850  1
  Ca  Ca13  1  0.15430450  0.61717850  0.11045150  1
  Ca  Ca14  1  0.34569550  0.38282150  0.61045150  1
  Ca  Ca15  1  0.38282150  0.38954850  0.15430450  1
  Ca  Ca16  1  0.38954850  0.15430450  0.38282150  1
  Ca  Ca17  1  0.88954850  0.34569550  0.61717850  1
  Ca  Ca18  1  0.61717850  0.11045150  0.15430450  1
  Ca  Ca19  1  0.61045150  0.34569550  0.38282150  1
  Ca  Ca20  1  0.61717850  0.88954850  0.34569550  1
  Ca  Ca21  1  0.11045150  0.15430450  0.61717850  1
  Ca  Ca22  1  0.38282150  0.61045150  0.34569550  1
  Ca  Ca23  1  0.15430450  0.38282150  0.38954850  1
  Ca  Ca24  1  0.38954850  0.65430450  0.61717850  1
  Ca  Ca25  1  0.38282150  0.88954850  0.84569550  1
  Ca  Ca26  1  0.11045150  0.65430450  0.38282150  1
  Ca  Ca27  1  0.61045150  0.84569550  0.61717850  1
  Ca  Ca28  1  0.61717850  0.61045150  0.84569550  1
  Ca  Ca29  1  0.65430450  0.61717850  0.38954850  1
  Ca  Ca30  1  0.84569550  0.38282150  0.88954850  1
  Ca  Ca31  1  0.65430450  0.38282150  0.11045150  1
  Ca  Ca32  1  0.38282150  0.11045150  0.65430450  1
  Ca  Ca33  1  0.88954850  0.84569550  0.38282150  1
  Ca  Ca34  1  0.61717850  0.38954850  0.65430450  1
  Ca  Ca35  1  0.84569550  0.61717850  0.61045150  1
  Ca  Ca36  1  0.84569550  0.11717850  0.38954850  1
  Ca  Ca37  1  0.65430450  0.11717850  0.61045150  1
  Ca  Ca38  1  0.84569550  0.88282150  0.11045150  1
  Ca  Ca39  1  0.88282150  0.88954850  0.65430450  1
  Ca  Ca40  1  0.88954850  0.65430450  0.88282150  1
  Ca  Ca41  1  0.38954850  0.84569550  0.11717850  1
  Ca  Ca42  1  0.11717850  0.61045150  0.65430450  1
  Ca  Ca43  1  0.11045150  0.84569550  0.88282150  1
  Ca  Ca44  1  0.11717850  0.38954850  0.84569550  1
  Ca  Ca45  1  0.61045150  0.65430450  0.11717850  1
  Ca  Ca46  1  0.88282150  0.11045150  0.84569550  1
  Ca  Ca47  1  0.65430450  0.88282150  0.88954850  1
  N  N48  1  0.00000000  0.25000000  0.46040200  1
  N  N49  1  0.03959800  0.00000000  0.75000000  1
  N  N50  1  0.75000000  0.03959800  0.00000000  1
  N  N51  1  0.46040200  0.00000000  0.25000000  1
  N  N52  1  0.25000000  0.46040200  0.00000000  1
  N  N53  1  0.00000000  0.75000000  0.03959800  1
  N  N54  1  0.50000000  0.25000000  0.03959800  1
  N  N55  1  0.46040200  0.50000000  0.75000000  1
  N  N56  1  0.75000000  0.46040200  0.50000000  1
  N  N57  1  0.03959800  0.50000000  0.25000000  1
  N  N58  1  0.25000000  0.03959800  0.50000000  1
  N  N59  1  0.50000000  0.75000000  0.46040200  1
  N  N60  1  0.75000000  0.25000000  0.25000000  1
  N  N61  1  0.25000000  0.25000000  0.75000000  1
  N  N62  1  0.25000000  0.75000000  0.25000000  1
  N  N63  1  0.25000000  0.25000000  0.25000000  1
  N  N64  1  0.50000000  0.75000000  0.96040200  1
  N  N65  1  0.53959800  0.50000000  0.25000000  1
  N  N66  1  0.25000000  0.53959800  0.50000000  1
  N  N67  1  0.96040200  0.50000000  0.75000000  1
  N  N68  1  0.75000000  0.96040200  0.50000000  1
  N  N69  1  0.50000000  0.25000000  0.53959800  1
  N  N70  1  0.00000000  0.75000000  0.53959800  1
  N  N71  1  0.96040200  0.00000000  0.25000000  1
  N  N72  1  0.25000000  0.96040200  0.00000000  1
  N  N73  1  0.53959800  0.00000000  0.75000000  1
  N  N74  1  0.75000000  0.53959800  0.00000000  1
  N  N75  1  0.00000000  0.25000000  0.96040200  1
  N  N76  1  0.25000000  0.75000000  0.75000000  1
  N  N77  1  0.75000000  0.75000000  0.25000000  1
  N  N78  1  0.75000000  0.25000000  0.75000000  1
  N  N79  1  0.75000000  0.75000000  0.75000000  1
