# generated using pymatgen
data_HoTa7O19
_symmetry_space_group_name_H-M   'P 1'
_cell_length_a   6.26360967
_cell_length_b   6.26360967
_cell_length_c   20.09300400
_cell_angle_alpha   90.00000000
_cell_angle_beta   90.00000000
_cell_angle_gamma   120.00000000
_symmetry_Int_Tables_number   1
_chemical_formula_structural   HoTa7O19
_chemical_formula_sum   'Ho2 Ta14 O38'
_cell_volume   682.69209550
_cell_formula_units_Z   2
loop_
 _symmetry_equiv_pos_site_id
 _symmetry_equiv_pos_as_xyz
  1  'x, y, z'
loop_
 _atom_site_type_symbol
 _atom_site_label
 _atom_site_symmetry_multiplicity
 _atom_site_fract_x
 _atom_site_fract_y
 _atom_site_fract_z
 _atom_site_occupancy
  Ho  Ho0  1  0.66666667  0.33333333  0.00000000  1
  Ho  Ho1  1  0.66666667  0.33333333  0.50000000  1
  Ta  Ta2  1  0.69371167  0.02708033  0.15537700  1
  Ta  Ta3  1  0.69371167  0.02708033  0.34462300  1
  Ta  Ta4  1  0.97291967  0.30628833  0.65537700  1
  Ta  Ta5  1  0.97291967  0.30628833  0.84462300  1
  Ta  Ta6  1  0.69371167  0.66663133  0.84462300  1
  Ta  Ta7  1  0.69371167  0.66663133  0.65537700  1
  Ta  Ta8  1  0.00000000  0.00000000  0.50000000  1
  Ta  Ta9  1  0.00000000  0.00000000  0.00000000  1
  Ta  Ta10  1  0.97291967  0.66663133  0.15537700  1
  Ta  Ta11  1  0.97291967  0.66663133  0.34462300  1
  Ta  Ta12  1  0.33336867  0.30628833  0.15537700  1
  Ta  Ta13  1  0.33336867  0.30628833  0.34462300  1
  Ta  Ta14  1  0.33336867  0.02708033  0.84462300  1
  Ta  Ta15  1  0.33336867  0.02708033  0.65537700  1
  O  O16  1  0.33304167  0.41919933  0.65322500  1
  O  O17  1  0.33304167  0.41919933  0.84677500  1
  O  O18  1  0.37596367  0.29312133  0.25000000  1
  O  O19  1  0.58080067  0.66695833  0.34677500  1
  O  O20  1  0.58080067  0.66695833  0.15322500  1
  O  O21  1  0.37596367  0.08284233  0.75000000  1
  O  O22  1  0.33304167  0.91384233  0.15322500  1
  O  O23  1  0.33304167  0.91384233  0.34677500  1
  O  O24  1  0.70687867  0.62403633  0.75000000  1
  O  O25  1  0.66666667  0.33333333  0.13071800  1
  O  O26  1  0.66666667  0.33333333  0.86928200  1
  O  O27  1  0.66666667  0.33333333  0.63071800  1
  O  O28  1  0.66666667  0.33333333  0.36928200  1
  O  O29  1  0.91715767  0.62403633  0.25000000  1
  O  O30  1  0.58080067  0.91384233  0.65322500  1
  O  O31  1  0.58080067  0.91384233  0.84677500  1
  O  O32  1  0.70687867  0.08284233  0.25000000  1
  O  O33  1  0.76092767  0.05076933  0.05543000  1
  O  O34  1  0.76092767  0.05076933  0.44457000  1
  O  O35  1  0.08615767  0.66695833  0.84677500  1
  O  O36  1  0.08615767  0.66695833  0.65322500  1
  O  O37  1  0.91715767  0.29312133  0.75000000  1
  O  O38  1  0.94923067  0.23907233  0.94457000  1
  O  O39  1  0.94923067  0.23907233  0.55543000  1
  O  O40  1  0.08615767  0.41919933  0.15322500  1
  O  O41  1  0.08615767  0.41919933  0.34677500  1
  O  O42  1  0.76092767  0.71015833  0.55543000  1
  O  O43  1  0.76092767  0.71015833  0.94457000  1
  O  O44  1  0.00000000  0.00000000  0.33365900  1
  O  O45  1  0.00000000  0.00000000  0.83365900  1
  O  O46  1  0.00000000  0.00000000  0.66634100  1
  O  O47  1  0.00000000  0.00000000  0.16634100  1
  O  O48  1  0.94923067  0.71015833  0.05543000  1
  O  O49  1  0.94923067  0.71015833  0.44457000  1
  O  O50  1  0.28984167  0.23907233  0.05543000  1
  O  O51  1  0.28984167  0.23907233  0.44457000  1
  O  O52  1  0.28984167  0.05076933  0.55543000  1
  O  O53  1  0.28984167  0.05076933  0.94457000  1
