# generated using pymatgen
data_Ta7BiO19
_symmetry_space_group_name_H-M   'P 1'
_cell_length_a   6.29948984
_cell_length_b   6.29948984
_cell_length_c   20.28602800
_cell_angle_alpha   90.00000000
_cell_angle_beta   90.00000000
_cell_angle_gamma   120.00000000
_symmetry_Int_Tables_number   1
_chemical_formula_structural   Ta7BiO19
_chemical_formula_sum   'Ta14 Bi2 O38'
_cell_volume   697.16955243
_cell_formula_units_Z   2
loop_
 _symmetry_equiv_pos_site_id
 _symmetry_equiv_pos_as_xyz
  1  'x, y, z'
loop_
 _atom_site_type_symbol
 _atom_site_label
 _atom_site_symmetry_multiplicity
 _atom_site_fract_x
 _atom_site_fract_y
 _atom_site_fract_z
 _atom_site_occupancy
  Ta  Ta0  1  0.64121700  0.64372200  0.40574300  1
  Ta  Ta1  1  0.64372200  0.64121700  0.59425700  1
  Ta  Ta2  1  0.35627800  0.35878300  0.09425700  1
  Ta  Ta3  1  0.35878300  0.35627800  0.90574300  1
  Ta  Ta4  1  0.66666667  0.33333333  0.75000000  1
  Ta  Ta5  1  0.35627800  0.99749500  0.40574300  1
  Ta  Ta6  1  0.35878300  0.00250500  0.59425700  1
  Ta  Ta7  1  0.64372200  0.00250500  0.90574300  1
  Ta  Ta8  1  0.64121700  0.99749500  0.09425700  1
  Ta  Ta9  1  0.99749500  0.64121700  0.90574300  1
  Ta  Ta10  1  0.00250500  0.64372200  0.09425700  1
  Ta  Ta11  1  0.33333333  0.66666667  0.25000000  1
  Ta  Ta12  1  0.00250500  0.35878300  0.40574300  1
  Ta  Ta13  1  0.99749500  0.35627800  0.59425700  1
  Bi  Bi14  1  0.66666667  0.33333333  0.25000000  1
  Bi  Bi15  1  0.33333333  0.66666667  0.75000000  1
  O  O16  1  0.75686800  0.75405400  0.09683700  1
  O  O17  1  0.75405400  0.75686800  0.90316300  1
  O  O18  1  0.60842650  0.60842650  0.50000000  1
  O  O19  1  0.57129300  0.61835400  0.30620800  1
  O  O20  1  0.61835400  0.57129300  0.69379200  1
  O  O21  1  0.42870700  0.38164600  0.80620800  1
  O  O22  1  0.38164600  0.42870700  0.19379200  1
  O  O23  1  0.39157350  0.39157350  0.00000000  1
  O  O24  1  0.24594600  0.24313200  0.40316300  1
  O  O25  1  0.24313200  0.24594600  0.59683700  1
  O  O26  1  0.66666667  0.33333333  0.38902100  1
  O  O27  1  0.66666667  0.33333333  0.90948600  1
  O  O28  1  0.66666667  0.33333333  0.11097900  1
  O  O29  1  0.66666667  0.33333333  0.59051400  1
  O  O30  1  0.24594600  0.00281400  0.09683700  1
  O  O31  1  0.24313200  0.99718600  0.90316300  1
  O  O32  1  0.39157350  0.00000000  0.50000000  1
  O  O33  1  0.38164600  0.95293900  0.30620800  1
  O  O34  1  0.42870700  0.04706100  0.69379200  1
  O  O35  1  0.99718600  0.75405400  0.40316300  1
  O  O36  1  0.00281400  0.75686800  0.59683700  1
  O  O37  1  0.61835400  0.04706100  0.80620800  1
  O  O38  1  0.57129300  0.95293900  0.19379200  1
  O  O39  1  0.60842650  0.00000000  0.00000000  1
  O  O40  1  0.75686800  0.00281400  0.40316300  1
  O  O41  1  0.75405400  0.99718600  0.59683700  1
  O  O42  1  0.00000000  0.60842650  0.00000000  1
  O  O43  1  0.04706100  0.61835400  0.19379200  1
  O  O44  1  0.95293900  0.57129300  0.80620800  1
  O  O45  1  0.33333333  0.66666667  0.88902100  1
  O  O46  1  0.33333333  0.66666667  0.09051400  1
  O  O47  1  0.33333333  0.66666667  0.40948600  1
  O  O48  1  0.33333333  0.66666667  0.61097900  1
  O  O49  1  0.04706100  0.42870700  0.30620800  1
  O  O50  1  0.95293900  0.38164600  0.69379200  1
  O  O51  1  0.00000000  0.39157350  0.50000000  1
  O  O52  1  0.99718600  0.24313200  0.09683700  1
  O  O53  1  0.00281400  0.24594600  0.90316300  1
