# generated using pymatgen
data_Na3SbSe4
_symmetry_space_group_name_H-M   'P 1'
_cell_length_a   7.56895400
_cell_length_b   7.56895400
_cell_length_c   7.56895400
_cell_angle_alpha   90.00000000
_cell_angle_beta   90.00000000
_cell_angle_gamma   90.00000000
_symmetry_Int_Tables_number   1
_chemical_formula_structural   Na3SbSe4
_chemical_formula_sum   'Na6 Sb2 Se8'
_cell_volume   433.61829507
_cell_formula_units_Z   2
loop_
 _symmetry_equiv_pos_site_id
 _symmetry_equiv_pos_as_xyz
  1  'x, y, z'
loop_
 _atom_site_type_symbol
 _atom_site_label
 _atom_site_symmetry_multiplicity
 _atom_site_fract_x
 _atom_site_fract_y
 _atom_site_fract_z
 _atom_site_occupancy
  Na  Na0  1  0.00000000  0.50000000  0.00000000  1
  Na  Na1  1  0.50000000  0.00000000  0.00000000  1
  Na  Na2  1  0.00000000  0.00000000  0.50000000  1
  Na  Na3  1  0.50000000  0.00000000  0.50000000  1
  Na  Na4  1  0.00000000  0.50000000  0.50000000  1
  Na  Na5  1  0.50000000  0.50000000  0.00000000  1
  Sb  Sb6  1  0.00000000  0.00000000  0.00000000  1
  Sb  Sb7  1  0.50000000  0.50000000  0.50000000  1
  Se  Se8  1  0.19229050  0.19229050  0.80770950  1
  Se  Se9  1  0.19229050  0.80770950  0.19229050  1
  Se  Se10  1  0.80770950  0.19229050  0.19229050  1
  Se  Se11  1  0.30770950  0.30770950  0.30770950  1
  Se  Se12  1  0.69229050  0.69229050  0.30770950  1
  Se  Se13  1  0.69229050  0.30770950  0.69229050  1
  Se  Se14  1  0.30770950  0.69229050  0.69229050  1
  Se  Se15  1  0.80770950  0.80770950  0.80770950  1
