# generated using pymatgen
data_Cd4P6SN12
_symmetry_space_group_name_H-M   'P 1'
_cell_length_a   8.55833800
_cell_length_b   8.55833800
_cell_length_c   8.55833800
_cell_angle_alpha   90.00000000
_cell_angle_beta   90.00000000
_cell_angle_gamma   90.00000000
_symmetry_Int_Tables_number   1
_chemical_formula_structural   Cd4P6SN12
_chemical_formula_sum   'Cd8 P12 S2 N24'
_cell_volume   626.85674476
_cell_formula_units_Z   2
loop_
 _symmetry_equiv_pos_site_id
 _symmetry_equiv_pos_as_xyz
  1  'x, y, z'
loop_
 _atom_site_type_symbol
 _atom_site_label
 _atom_site_symmetry_multiplicity
 _atom_site_fract_x
 _atom_site_fract_y
 _atom_site_fract_z
 _atom_site_occupancy
  Cd  Cd0  1  0.66810050  0.33189950  0.33189950  1
  Cd  Cd1  1  0.33189950  0.33189950  0.66810050  1
  Cd  Cd2  1  0.33189950  0.66810050  0.33189950  1
  Cd  Cd3  1  0.16810050  0.16810050  0.16810050  1
  Cd  Cd4  1  0.16810050  0.83189950  0.83189950  1
  Cd  Cd5  1  0.83189950  0.83189950  0.16810050  1
  Cd  Cd6  1  0.83189950  0.16810050  0.83189950  1
  Cd  Cd7  1  0.66810050  0.66810050  0.66810050  1
  P  P8  1  0.50000000  0.00000000  0.25000000  1
  P  P9  1  0.00000000  0.50000000  0.25000000  1
  P  P10  1  0.00000000  0.25000000  0.50000000  1
  P  P11  1  0.50000000  0.25000000  0.00000000  1
  P  P12  1  0.25000000  0.00000000  0.50000000  1
  P  P13  1  0.25000000  0.50000000  0.00000000  1
  P  P14  1  0.00000000  0.50000000  0.75000000  1
  P  P15  1  0.50000000  0.00000000  0.75000000  1
  P  P16  1  0.50000000  0.75000000  0.00000000  1
  P  P17  1  0.00000000  0.75000000  0.50000000  1
  P  P18  1  0.75000000  0.50000000  0.00000000  1
  P  P19  1  0.75000000  0.00000000  0.50000000  1
  S  S20  1  0.00000000  0.00000000  0.00000000  1
  S  S21  1  0.50000000  0.50000000  0.50000000  1
  N  N22  1  0.93007100  0.35509700  0.35509700  1
  N  N23  1  0.35509700  0.93007100  0.35509700  1
  N  N24  1  0.43007100  0.14490300  0.14490300  1
  N  N25  1  0.14490300  0.14490300  0.43007100  1
  N  N26  1  0.14490300  0.85509700  0.56992900  1
  N  N27  1  0.56992900  0.85509700  0.14490300  1
  N  N28  1  0.14490300  0.43007100  0.14490300  1
  N  N29  1  0.85509700  0.56992900  0.14490300  1
  N  N30  1  0.14490300  0.56992900  0.85509700  1
  N  N31  1  0.85509700  0.14490300  0.56992900  1
  N  N32  1  0.35509700  0.35509700  0.93007100  1
  N  N33  1  0.56992900  0.14490300  0.85509700  1
  N  N34  1  0.43007100  0.85509700  0.85509700  1
  N  N35  1  0.85509700  0.43007100  0.85509700  1
  N  N36  1  0.93007100  0.64490300  0.64490300  1
  N  N37  1  0.64490300  0.64490300  0.93007100  1
  N  N38  1  0.64490300  0.35509700  0.06992900  1
  N  N39  1  0.06992900  0.35509700  0.64490300  1
  N  N40  1  0.64490300  0.93007100  0.64490300  1
  N  N41  1  0.35509700  0.06992900  0.64490300  1
  N  N42  1  0.64490300  0.06992900  0.35509700  1
  N  N43  1  0.35509700  0.64490300  0.06992900  1
  N  N44  1  0.85509700  0.85509700  0.43007100  1
  N  N45  1  0.06992900  0.64490300  0.35509700  1
