# generated using pymatgen
data_Pm2S3
_symmetry_space_group_name_H-M   'P 1'
_cell_length_a   7.13880343
_cell_length_b   7.13880343
_cell_length_c   18.87780405
_cell_angle_alpha   90.00000000
_cell_angle_beta   90.00000000
_cell_angle_gamma   120.00000000
_symmetry_Int_Tables_number   1
_chemical_formula_structural   Pm2S3
_chemical_formula_sum   'Pm12 S18'
_cell_volume   833.16871276
_cell_formula_units_Z   6
loop_
 _symmetry_equiv_pos_site_id
 _symmetry_equiv_pos_as_xyz
  1  'x, y, z'
loop_
 _atom_site_type_symbol
 _atom_site_label
 _atom_site_symmetry_multiplicity
 _atom_site_fract_x
 _atom_site_fract_y
 _atom_site_fract_z
 _atom_site_occupancy
  Pm  Pm0  1  0.66666667  0.33333333  0.18637233  1
  Pm  Pm1  1  0.33333333  0.66666667  0.31362767  1
  Pm  Pm2  1  0.33333333  0.66666667  0.01970567  1
  Pm  Pm3  1  0.00000000  0.00000000  0.14696100  1
  Pm  Pm4  1  0.33333333  0.66666667  0.51970567  1
  Pm  Pm5  1  0.00000000  0.00000000  0.64696100  1
  Pm  Pm6  1  0.00000000  0.00000000  0.35303900  1
  Pm  Pm7  1  0.66666667  0.33333333  0.48029433  1
  Pm  Pm8  1  0.00000000  0.00000000  0.85303900  1
  Pm  Pm9  1  0.66666667  0.33333333  0.98029433  1
  Pm  Pm10  1  0.66666667  0.33333333  0.68637233  1
  Pm  Pm11  1  0.33333333  0.66666667  0.81362767  1
  S  S12  1  0.00000000  0.29636200  0.25000000  1
  S  S13  1  0.29636200  0.00000000  0.25000000  1
  S  S14  1  0.70363800  0.70363800  0.25000000  1
  S  S15  1  0.96302867  0.62969533  0.08333333  1
  S  S16  1  0.37030467  0.33333333  0.08333333  1
  S  S17  1  0.66666667  0.03697133  0.08333333  1
  S  S18  1  0.66666667  0.62969533  0.58333333  1
  S  S19  1  0.96302867  0.33333333  0.58333333  1
  S  S20  1  0.37030467  0.03697133  0.58333333  1
  S  S21  1  0.62969533  0.96302867  0.41666667  1
  S  S22  1  0.03697133  0.66666667  0.41666667  1
  S  S23  1  0.33333333  0.37030467  0.41666667  1
  S  S24  1  0.33333333  0.96302867  0.91666667  1
  S  S25  1  0.62969533  0.66666667  0.91666667  1
  S  S26  1  0.03697133  0.37030467  0.91666667  1
  S  S27  1  0.29636200  0.29636200  0.75000000  1
  S  S28  1  0.70363800  0.00000000  0.75000000  1
  S  S29  1  0.00000000  0.70363800  0.75000000  1
