# generated using pymatgen
data_Na3VP2O9
_symmetry_space_group_name_H-M   'P 1'
_cell_length_a   6.31857200
_cell_length_b   6.47005300
_cell_length_c   9.76674824
_cell_angle_alpha   90.00000000
_cell_angle_beta   108.62880766
_cell_angle_gamma   90.00000000
_symmetry_Int_Tables_number   1
_chemical_formula_structural   Na3VP2O9
_chemical_formula_sum   'Na6 V2 P4 O18'
_cell_volume   378.36020524
_cell_formula_units_Z   2
loop_
 _symmetry_equiv_pos_site_id
 _symmetry_equiv_pos_as_xyz
  1  'x, y, z'
loop_
 _atom_site_type_symbol
 _atom_site_label
 _atom_site_symmetry_multiplicity
 _atom_site_fract_x
 _atom_site_fract_y
 _atom_site_fract_z
 _atom_site_occupancy
  Na  Na0  1  0.22343500  0.50764800  0.82495100  1
  Na  Na1  1  0.77656500  0.00764800  0.17504900  1
  Na  Na2  1  0.77656500  0.49235200  0.17504900  1
  Na  Na3  1  0.22343500  0.99235200  0.82495100  1
  Na  Na4  1  0.73153100  0.25000000  0.81975400  1
  Na  Na5  1  0.26846900  0.75000000  0.18024600  1
  V  V6  1  0.21208300  0.25000000  0.42184900  1
  V  V7  1  0.78791700  0.75000000  0.57815100  1
  P  P8  1  0.75652500  0.25000000  0.50024100  1
  P  P9  1  0.24347500  0.75000000  0.49975900  1
  P  P10  1  0.26029000  0.25000000  0.09699800  1
  P  P11  1  0.73971000  0.75000000  0.90300200  1
  O  O12  1  0.87906500  0.25000000  0.38544900  1
  O  O13  1  0.12093500  0.75000000  0.61455100  1
  O  O14  1  0.18531200  0.55843900  0.39928300  1
  O  O15  1  0.81468800  0.05843900  0.60071700  1
  O  O16  1  0.81468800  0.44156100  0.60071700  1
  O  O17  1  0.18531200  0.94156100  0.39928300  1
  O  O18  1  0.72220800  0.75000000  0.39988400  1
  O  O19  1  0.27779200  0.25000000  0.60011600  1
  O  O20  1  0.49621500  0.75000000  0.58663000  1
  O  O21  1  0.50378500  0.25000000  0.41337000  1
  O  O22  1  0.89046100  0.75000000  0.79494600  1
  O  O23  1  0.10953900  0.25000000  0.20505400  1
  O  O24  1  0.90307700  0.75000000  0.05972500  1
  O  O25  1  0.09692300  0.25000000  0.94027500  1
  O  O26  1  0.59914400  0.55132700  0.87533800  1
  O  O27  1  0.40085600  0.05132700  0.12466200  1
  O  O28  1  0.40085600  0.44867300  0.12466200  1
  O  O29  1  0.59914400  0.94867300  0.87533800  1
