# generated using pymatgen
data_LiMnBO3
_symmetry_space_group_name_H-M   'P 1'
_cell_length_a   5.26163630
_cell_length_b   9.07455385
_cell_length_c   10.57313993
_cell_angle_alpha   90.00000000
_cell_angle_beta   92.01902603
_cell_angle_gamma   90.00000000
_symmetry_Int_Tables_number   1
_chemical_formula_structural   LiMnBO3
_chemical_formula_sum   'Li8 Mn8 B8 O24'
_cell_volume   504.52232163
_cell_formula_units_Z   8
loop_
 _symmetry_equiv_pos_site_id
 _symmetry_equiv_pos_as_xyz
  1  'x, y, z'
loop_
 _atom_site_type_symbol
 _atom_site_label
 _atom_site_symmetry_multiplicity
 _atom_site_fract_x
 _atom_site_fract_y
 _atom_site_fract_z
 _atom_site_occupancy
  Li  Li0  1  0.33496450  0.01434850  0.33147900  1
  Li  Li1  1  0.33496450  0.98565150  0.83147900  1
  Li  Li2  1  0.65674600  0.00560300  0.58169000  1
  Li  Li3  1  0.65674600  0.99439700  0.08169000  1
  Li  Li4  1  0.83496450  0.51434850  0.33147900  1
  Li  Li5  1  0.83496450  0.48565150  0.83147900  1
  Li  Li6  1  0.15674600  0.50560300  0.58169000  1
  Li  Li7  1  0.15674600  0.49439700  0.08169000  1
  Mn  Mn8  1  0.83676150  0.15949450  0.86652300  1
  Mn  Mn9  1  0.83676150  0.84050550  0.36652300  1
  Mn  Mn10  1  0.66302950  0.33318950  0.11641900  1
  Mn  Mn11  1  0.66302950  0.66681050  0.61641900  1
  Mn  Mn12  1  0.33676150  0.65949450  0.86652300  1
  Mn  Mn13  1  0.33676150  0.34050550  0.36652300  1
  Mn  Mn14  1  0.16302950  0.83318950  0.11641900  1
  Mn  Mn15  1  0.16302950  0.16681050  0.61641900  1
  B  B16  1  0.32995900  0.32734100  0.87449100  1
  B  B17  1  0.32995900  0.67265900  0.37449100  1
  B  B18  1  0.66545700  0.33052100  0.62440900  1
  B  B19  1  0.66545700  0.66947900  0.12440900  1
  B  B20  1  0.82995900  0.82734100  0.87449100  1
  B  B21  1  0.82995900  0.17265900  0.37449100  1
  B  B22  1  0.16545700  0.83052100  0.62440900  1
  B  B23  1  0.16545700  0.16947900  0.12440900  1
  O  O24  1  0.41263950  0.34138550  0.58123100  1
  O  O25  1  0.41263950  0.65861450  0.08123100  1
  O  O26  1  0.59110750  0.33752850  0.90466300  1
  O  O27  1  0.59110750  0.66247150  0.40466300  1
  O  O28  1  0.22635100  0.19382200  0.83202400  1
  O  O29  1  0.22635100  0.80617800  0.33202400  1
  O  O30  1  0.77052300  0.19227100  0.65533500  1
  O  O31  1  0.77052300  0.80772900  0.15533500  1
  O  O32  1  0.31464550  0.04466250  0.13968200  1
  O  O33  1  0.31464550  0.95533750  0.63968200  1
  O  O34  1  0.67751700  0.04991900  0.39015200  1
  O  O35  1  0.67751700  0.95008100  0.89015200  1
  O  O36  1  0.91263950  0.84138550  0.58123100  1
  O  O37  1  0.91263950  0.15861450  0.08123100  1
  O  O38  1  0.09110750  0.83752850  0.90466300  1
  O  O39  1  0.09110750  0.16247150  0.40466300  1
  O  O40  1  0.72635100  0.69382200  0.83202400  1
  O  O41  1  0.72635100  0.30617800  0.33202400  1
  O  O42  1  0.27052300  0.69227100  0.65533500  1
  O  O43  1  0.27052300  0.30772900  0.15533500  1
  O  O44  1  0.81464550  0.54466250  0.13968200  1
  O  O45  1  0.81464550  0.45533750  0.63968200  1
  O  O46  1  0.17751700  0.54991900  0.39015200  1
  O  O47  1  0.17751700  0.45008100  0.89015200  1
