# generated using pymatgen
data_Sr(BO2)2
_symmetry_space_group_name_H-M   'P 1'
_cell_length_a   9.31769100
_cell_length_b   9.31769100
_cell_length_c   9.31769100
_cell_angle_alpha   90.00000000
_cell_angle_beta   90.00000000
_cell_angle_gamma   90.00000000
_symmetry_Int_Tables_number   1
_chemical_formula_structural   Sr(BO2)2
_chemical_formula_sum   'Sr12 B24 O48'
_cell_volume   808.95602121
_cell_formula_units_Z   12
loop_
 _symmetry_equiv_pos_site_id
 _symmetry_equiv_pos_as_xyz
  1  'x, y, z'
loop_
 _atom_site_type_symbol
 _atom_site_label
 _atom_site_symmetry_multiplicity
 _atom_site_fract_x
 _atom_site_fract_y
 _atom_site_fract_z
 _atom_site_occupancy
  Sr  Sr0  1  0.37054800  0.12945200  0.87054800  1
  Sr  Sr1  1  0.12945200  0.87054800  0.37054800  1
  Sr  Sr2  1  0.87054800  0.37054800  0.12945200  1
  Sr  Sr3  1  0.62945200  0.62945200  0.62945200  1
  Sr  Sr4  1  0.62945200  0.87054800  0.12945200  1
  Sr  Sr5  1  0.87054800  0.12945200  0.62945200  1
  Sr  Sr6  1  0.12945200  0.62945200  0.87054800  1
  Sr  Sr7  1  0.37054800  0.37054800  0.37054800  1
  Sr  Sr8  1  0.00000000  0.50000000  0.50000000  1
  Sr  Sr9  1  0.50000000  0.50000000  0.00000000  1
  Sr  Sr10  1  0.50000000  0.00000000  0.50000000  1
  Sr  Sr11  1  0.00000000  0.00000000  0.00000000  1
  B  B12  1  0.81277400  0.83797200  0.38713200  1
  B  B13  1  0.61286800  0.18722600  0.16202800  1
  B  B14  1  0.11286800  0.31277400  0.83797200  1
  B  B15  1  0.38713200  0.68722600  0.33797200  1
  B  B16  1  0.31277400  0.83797200  0.11286800  1
  B  B17  1  0.33797200  0.38713200  0.68722600  1
  B  B18  1  0.83797200  0.11286800  0.31277400  1
  B  B19  1  0.18722600  0.16202800  0.61286800  1
  B  B20  1  0.16202800  0.61286800  0.18722600  1
  B  B21  1  0.68722600  0.33797200  0.38713200  1
  B  B22  1  0.81277400  0.66202800  0.88713200  1
  B  B23  1  0.66202800  0.88713200  0.81277400  1
  B  B24  1  0.11286800  0.18722600  0.33797200  1
  B  B25  1  0.33797200  0.11286800  0.18722600  1
  B  B26  1  0.18722600  0.33797200  0.11286800  1
  B  B27  1  0.31277400  0.66202800  0.61286800  1
  B  B28  1  0.83797200  0.38713200  0.81277400  1
  B  B29  1  0.88713200  0.81277400  0.66202800  1
  B  B30  1  0.16202800  0.88713200  0.68722600  1
  B  B31  1  0.66202800  0.61286800  0.31277400  1
  B  B32  1  0.68722600  0.16202800  0.88713200  1
  B  B33  1  0.61286800  0.31277400  0.66202800  1
  B  B34  1  0.88713200  0.68722600  0.16202800  1
  B  B35  1  0.38713200  0.81277400  0.83797200  1
  O  O36  1  0.59301900  0.28141100  0.50460700  1
  O  O37  1  0.90698100  0.71858900  0.00460700  1
  O  O38  1  0.00460700  0.90698100  0.71858900  1
  O  O39  1  0.71858900  0.00460700  0.90698100  1
  O  O40  1  0.78141100  0.99539300  0.40698100  1
  O  O41  1  0.50460700  0.59301900  0.28141100  1
  O  O42  1  0.28141100  0.50460700  0.59301900  1
  O  O43  1  0.49539300  0.09301900  0.21858900  1
  O  O44  1  0.99539300  0.40698100  0.78141100  1
  O  O45  1  0.21858900  0.49539300  0.09301900  1
  O  O46  1  0.40698100  0.78141100  0.99539300  1
  O  O47  1  0.09301900  0.21858900  0.49539300  1
  O  O48  1  0.32358000  0.25694400  0.11511400  1
  O  O49  1  0.11511400  0.32358000  0.25694400  1
  O  O50  1  0.25694400  0.11511400  0.32358000  1
  O  O51  1  0.24305600  0.88488600  0.82358000  1
  O  O52  1  0.61511400  0.17642000  0.74305600  1
  O  O53  1  0.74305600  0.61511400  0.17642000  1
  O  O54  1  0.38488600  0.67642000  0.75694400  1
  O  O55  1  0.88488600  0.82358000  0.24305600  1
  O  O56  1  0.75694400  0.38488600  0.67642000  1
  O  O57  1  0.82358000  0.24305600  0.88488600  1
  O  O58  1  0.67642000  0.75694400  0.38488600  1
  O  O59  1  0.17642000  0.74305600  0.61511400  1
  O  O60  1  0.67642000  0.74305600  0.88488600  1
  O  O61  1  0.88488600  0.67642000  0.74305600  1
  O  O62  1  0.74305600  0.88488600  0.67642000  1
  O  O63  1  0.75694400  0.11511400  0.17642000  1
  O  O64  1  0.38488600  0.82358000  0.25694400  1
  O  O65  1  0.25694400  0.38488600  0.82358000  1
  O  O66  1  0.61511400  0.32358000  0.24305600  1
  O  O67  1  0.11511400  0.17642000  0.75694400  1
  O  O68  1  0.24305600  0.61511400  0.32358000  1
  O  O69  1  0.17642000  0.75694400  0.11511400  1
  O  O70  1  0.32358000  0.24305600  0.61511400  1
  O  O71  1  0.82358000  0.25694400  0.38488600  1
  O  O72  1  0.09301900  0.28141100  0.99539300  1
  O  O73  1  0.99539300  0.09301900  0.28141100  1
  O  O74  1  0.28141100  0.99539300  0.09301900  1
  O  O75  1  0.40698100  0.71858900  0.49539300  1
  O  O76  1  0.49539300  0.40698100  0.71858900  1
  O  O77  1  0.71858900  0.49539300  0.40698100  1
  O  O78  1  0.50460700  0.90698100  0.78141100  1
  O  O79  1  0.00460700  0.59301900  0.21858900  1
  O  O80  1  0.78141100  0.50460700  0.90698100  1
  O  O81  1  0.59301900  0.21858900  0.00460700  1
  O  O82  1  0.90698100  0.78141100  0.50460700  1
  O  O83  1  0.21858900  0.00460700  0.59301900  1
