# generated using pymatgen
data_NaSbO2
_symmetry_space_group_name_H-M   'P 1'
_cell_length_a   5.50822300
_cell_length_b   6.76966900
_cell_length_c   16.61708300
_cell_angle_alpha   90.00000000
_cell_angle_beta   90.00000000
_cell_angle_gamma   90.00000000
_symmetry_Int_Tables_number   1
_chemical_formula_structural   NaSbO2
_chemical_formula_sum   'Na8 Sb8 O16'
_cell_volume   619.63185707
_cell_formula_units_Z   8
loop_
 _symmetry_equiv_pos_site_id
 _symmetry_equiv_pos_as_xyz
  1  'x, y, z'
loop_
 _atom_site_type_symbol
 _atom_site_label
 _atom_site_symmetry_multiplicity
 _atom_site_fract_x
 _atom_site_fract_y
 _atom_site_fract_z
 _atom_site_occupancy
  Na  Na0  1  0.76080500  0.40709100  0.79599600  1
  Na  Na1  1  0.26080500  0.09290900  0.79599600  1
  Na  Na2  1  0.76080500  0.90709100  0.70400400  1
  Na  Na3  1  0.26080500  0.59290900  0.70400400  1
  Na  Na4  1  0.73919500  0.40709100  0.29599600  1
  Na  Na5  1  0.23919500  0.09290900  0.29599600  1
  Na  Na6  1  0.73919500  0.90709100  0.20400400  1
  Na  Na7  1  0.23919500  0.59290900  0.20400400  1
  Sb  Sb8  1  0.75090100  0.91675000  0.91683300  1
  Sb  Sb9  1  0.25090100  0.58325000  0.91683300  1
  Sb  Sb10  1  0.75090100  0.41675000  0.58316700  1
  Sb  Sb11  1  0.25090100  0.08325000  0.58316700  1
  Sb  Sb12  1  0.74909900  0.91675000  0.41683300  1
  Sb  Sb13  1  0.24909900  0.58325000  0.41683300  1
  Sb  Sb14  1  0.74909900  0.41675000  0.08316700  1
  Sb  Sb15  1  0.24909900  0.08325000  0.08316700  1
  O  O16  1  0.07765800  0.82775300  0.87540100  1
  O  O17  1  0.57765800  0.67224700  0.87540100  1
  O  O18  1  0.68133100  0.08042800  0.82595600  1
  O  O19  1  0.18133100  0.41957200  0.82595600  1
  O  O20  1  0.18133100  0.91957200  0.67404400  1
  O  O21  1  0.68133100  0.58042800  0.67404400  1
  O  O22  1  0.07765800  0.32775300  0.62459900  1
  O  O23  1  0.57765800  0.17224700  0.62459900  1
  O  O24  1  0.42234200  0.82775300  0.37540100  1
  O  O25  1  0.92234200  0.67224700  0.37540100  1
  O  O26  1  0.31866900  0.41957200  0.32595600  1
  O  O27  1  0.81866900  0.08042800  0.32595600  1
  O  O28  1  0.31866900  0.91957200  0.17404400  1
  O  O29  1  0.81866900  0.58042800  0.17404400  1
  O  O30  1  0.42234200  0.32775300  0.12459900  1
  O  O31  1  0.92234200  0.17224700  0.12459900  1
