# generated using pymatgen
data_K2InP2S7
_symmetry_space_group_name_H-M   'P 1'
_cell_length_a   14.65435800
_cell_length_b   10.76813400
_cell_length_c   8.83522841
_cell_angle_alpha   90.00000000
_cell_angle_beta   109.45324083
_cell_angle_gamma   90.00000000
_symmetry_Int_Tables_number   1
_chemical_formula_structural   K2InP2S7
_chemical_formula_sum   'K8 In4 P8 S28'
_cell_volume   1314.60998961
_cell_formula_units_Z   4
loop_
 _symmetry_equiv_pos_site_id
 _symmetry_equiv_pos_as_xyz
  1  'x, y, z'
loop_
 _atom_site_type_symbol
 _atom_site_label
 _atom_site_symmetry_multiplicity
 _atom_site_fract_x
 _atom_site_fract_y
 _atom_site_fract_z
 _atom_site_occupancy
  K  K0  1  0.32971950  0.71767350  0.84090200  1
  K  K1  1  0.67028050  0.71767350  0.15909800  1
  K  K2  1  0.67028050  0.28232650  0.15909800  1
  K  K3  1  0.32971950  0.28232650  0.84090200  1
  K  K4  1  0.82971950  0.21767350  0.84090200  1
  K  K5  1  0.17028050  0.21767350  0.15909800  1
  K  K6  1  0.17028050  0.78232650  0.15909800  1
  K  K7  1  0.82971950  0.78232650  0.84090200  1
  In  In8  1  0.50000000  0.81104000  0.50000000  1
  In  In9  1  0.50000000  0.18896000  0.50000000  1
  In  In10  1  0.00000000  0.31104000  0.50000000  1
  In  In11  1  0.00000000  0.68896000  0.50000000  1
  P  P12  1  0.94011900  0.00000000  0.55931700  1
  P  P13  1  0.05988100  0.00000000  0.44068300  1
  P  P14  1  0.38995100  0.00000000  0.18532800  1
  P  P15  1  0.61004900  0.00000000  0.81467200  1
  P  P16  1  0.44011900  0.50000000  0.55931700  1
  P  P17  1  0.55988100  0.50000000  0.44068300  1
  P  P18  1  0.88995100  0.50000000  0.18532800  1
  P  P19  1  0.11004900  0.50000000  0.81467200  1
  S  S20  1  0.53109300  0.83872100  0.80435000  1
  S  S21  1  0.46890700  0.83872100  0.19565000  1
  S  S22  1  0.46890700  0.16127900  0.19565000  1
  S  S23  1  0.53109300  0.16127900  0.80435000  1
  S  S24  1  0.99405300  0.00000000  0.79738100  1
  S  S25  1  0.00594700  0.00000000  0.20261900  1
  S  S26  1  0.35829950  0.65572450  0.46613600  1
  S  S27  1  0.64170050  0.65572450  0.53386400  1
  S  S28  1  0.64170050  0.34427550  0.53386400  1
  S  S29  1  0.35829950  0.34427550  0.46613600  1
  S  S30  1  0.27012500  0.00000000  0.99034300  1
  S  S31  1  0.72987500  0.00000000  0.00965700  1
  S  S32  1  0.36148200  0.00000000  0.40456600  1
  S  S33  1  0.63851800  0.00000000  0.59543400  1
  S  S34  1  0.03109300  0.33872100  0.80435000  1
  S  S35  1  0.96890700  0.33872100  0.19565000  1
  S  S36  1  0.96890700  0.66127900  0.19565000  1
  S  S37  1  0.03109300  0.66127900  0.80435000  1
  S  S38  1  0.49405300  0.50000000  0.79738100  1
  S  S39  1  0.50594700  0.50000000  0.20261900  1
  S  S40  1  0.85829950  0.15572450  0.46613600  1
  S  S41  1  0.14170050  0.15572450  0.53386400  1
  S  S42  1  0.14170050  0.84427550  0.53386400  1
  S  S43  1  0.85829950  0.84427550  0.46613600  1
  S  S44  1  0.77012500  0.50000000  0.99034300  1
  S  S45  1  0.22987500  0.50000000  0.00965700  1
  S  S46  1  0.86148200  0.50000000  0.40456600  1
  S  S47  1  0.13851800  0.50000000  0.59543400  1
