# generated using pymatgen
data_Li2MnV(P2O7)2
_symmetry_space_group_name_H-M   'P 1'
_cell_length_a   4.85247391
_cell_length_b   7.08121068
_cell_length_c   8.34301042
_cell_angle_alpha   91.73703682
_cell_angle_beta   89.50720062
_cell_angle_gamma   108.59718889
_symmetry_Int_Tables_number   1
_chemical_formula_structural   Li2MnV(P2O7)2
_chemical_formula_sum   'Li2 Mn1 V1 P4 O14'
_cell_volume   271.58327423
_cell_formula_units_Z   1
loop_
 _symmetry_equiv_pos_site_id
 _symmetry_equiv_pos_as_xyz
  1  'x, y, z'
loop_
 _atom_site_type_symbol
 _atom_site_label
 _atom_site_symmetry_multiplicity
 _atom_site_fract_x
 _atom_site_fract_y
 _atom_site_fract_z
 _atom_site_occupancy
  Li  Li0  1  0.82715000  0.32909700  0.14082550  1
  Li  Li1  1  0.17611050  0.67058550  0.64421400  1
  Mn  Mn2  1  0.20943700  0.72799500  0.00115600  1
  V  V3  1  0.78819550  0.27436750  0.50056700  1
  P  P4  1  0.59783300  0.47770600  0.82427350  1
  P  P5  1  0.77996250  0.90885950  0.21379100  1
  P  P6  1  0.21579150  0.08799950  0.71153500  1
  P  P7  1  0.39950700  0.51925800  0.31934900  1
  O  O8  1  0.95682700  0.15685600  0.67371250  1
  O  O9  1  0.85848050  0.11132350  0.30021850  1
  O  O10  1  0.81223400  0.52270800  0.96631800  1
  O  O11  1  0.75150050  0.49538750  0.66208650  1
  O  O12  1  0.61092200  0.39790800  0.32540550  1
  O  O13  1  0.40449050  0.08956350  0.56214050  1
  O  O14  1  0.40898900  0.24796900  0.84691650  1
  O  O15  1  0.59525850  0.75204450  0.34264550  1
  O  O16  1  0.59315750  0.90329550  0.06437350  1
  O  O17  1  0.38918650  0.60274850  0.82882100  1
  O  O18  1  0.24384300  0.49345300  0.15884250  1
  O  O19  1  0.19089100  0.48658500  0.46312750  1
  O  O20  1  0.13526300  0.88857200  0.79257450  1
  O  O21  1  0.05497600  0.85571700  0.17152450  1
