# generated using pymatgen
data_SiO2
_symmetry_space_group_name_H-M   'P 1'
_cell_length_a   14.28056814
_cell_length_b   14.28056814
_cell_length_c   11.46893600
_cell_angle_alpha   90.00000000
_cell_angle_beta   90.00000000
_cell_angle_gamma   120.00000000
_symmetry_Int_Tables_number   1
_chemical_formula_structural   SiO2
_chemical_formula_sum   'Si34 O68'
_cell_volume   2025.55823073
_cell_formula_units_Z   34
loop_
 _symmetry_equiv_pos_site_id
 _symmetry_equiv_pos_as_xyz
  1  'x, y, z'
loop_
 _atom_site_type_symbol
 _atom_site_label
 _atom_site_symmetry_multiplicity
 _atom_site_fract_x
 _atom_site_fract_y
 _atom_site_fract_z
 _atom_site_occupancy
  Si  Si0  1  0.66666667  0.33333333  0.85953600  1
  Si  Si1  1  0.33333333  0.66666667  0.85953600  1
  Si  Si2  1  0.33333333  0.66666667  0.14046400  1
  Si  Si3  1  0.66666667  0.33333333  0.14046400  1
  Si  Si4  1  0.86937550  0.13062450  0.00000000  1
  Si  Si5  1  0.73875100  0.86937550  0.00000000  1
  Si  Si6  1  0.13062450  0.26124900  0.00000000  1
  Si  Si7  1  0.86937550  0.73875100  0.00000000  1
  Si  Si8  1  0.26124900  0.13062450  0.00000000  1
  Si  Si9  1  0.13062450  0.86937550  0.00000000  1
  Si  Si10  1  0.38982900  0.00000000  0.64000700  1
  Si  Si11  1  0.00000000  0.38982900  0.64000700  1
  Si  Si12  1  0.61017100  0.61017100  0.64000700  1
  Si  Si13  1  0.38982900  0.38982900  0.64000700  1
  Si  Si14  1  0.00000000  0.38982900  0.35999300  1
  Si  Si15  1  0.61017100  0.00000000  0.64000700  1
  Si  Si16  1  0.00000000  0.61017100  0.64000700  1
  Si  Si17  1  0.61017100  0.00000000  0.35999300  1
  Si  Si18  1  0.38982900  0.38982900  0.35999300  1
  Si  Si19  1  0.61017100  0.61017100  0.35999300  1
  Si  Si20  1  0.38982900  0.00000000  0.35999300  1
  Si  Si21  1  0.00000000  0.61017100  0.35999300  1
  Si  Si22  1  0.20875100  0.79124900  0.77331000  1
  Si  Si23  1  0.20875100  0.41750200  0.77331000  1
  Si  Si24  1  0.58249800  0.79124900  0.77331000  1
  Si  Si25  1  0.41750200  0.20875100  0.77331000  1
  Si  Si26  1  0.79124900  0.20875100  0.22669000  1
  Si  Si27  1  0.79124900  0.20875100  0.77331000  1
  Si  Si28  1  0.79124900  0.58249800  0.77331000  1
  Si  Si29  1  0.58249800  0.79124900  0.22669000  1
  Si  Si30  1  0.20875100  0.41750200  0.22669000  1
  Si  Si31  1  0.79124900  0.58249800  0.22669000  1
  Si  Si32  1  0.41750200  0.20875100  0.22669000  1
  Si  Si33  1  0.20875100  0.79124900  0.22669000  1
  O  O34  1  0.33333333  0.66666667  0.00000000  1
  O  O35  1  0.66666667  0.33333333  0.00000000  1
  O  O36  1  0.50000000  0.50000000  0.67486700  1
  O  O37  1  0.50000000  0.00000000  0.67486700  1
  O  O38  1  0.00000000  0.50000000  0.67486700  1
  O  O39  1  0.50000000  0.50000000  0.32513300  1
  O  O40  1  0.50000000  0.00000000  0.32513300  1
  O  O41  1  0.00000000  0.50000000  0.32513300  1
  O  O42  1  0.00000000  0.18483350  0.00000000  1
  O  O43  1  0.81516650  0.00000000  0.00000000  1
  O  O44  1  0.18483350  0.18483350  0.00000000  1
  O  O45  1  0.81516650  0.81516650  0.00000000  1
  O  O46  1  0.18483350  0.00000000  0.00000000  1
  O  O47  1  0.00000000  0.81516650  0.00000000  1
  O  O48  1  0.00000000  0.37687250  0.50000000  1
  O  O49  1  0.62312750  0.00000000  0.50000000  1
  O  O50  1  0.37687250  0.37687250  0.50000000  1
  O  O51  1  0.62312750  0.62312750  0.50000000  1
  O  O52  1  0.37687250  0.00000000  0.50000000  1
  O  O53  1  0.00000000  0.62312750  0.50000000  1
  O  O54  1  0.16909150  0.83090850  0.88559300  1
  O  O55  1  0.16909150  0.33818300  0.88559300  1
  O  O56  1  0.66181700  0.83090850  0.88559300  1
  O  O57  1  0.33818300  0.16909150  0.88559300  1
  O  O58  1  0.83090850  0.16909150  0.11440700  1
  O  O59  1  0.83090850  0.16909150  0.88559300  1
  O  O60  1  0.83090850  0.66181700  0.88559300  1
  O  O61  1  0.66181700  0.83090850  0.11440700  1
  O  O62  1  0.16909150  0.33818300  0.11440700  1
  O  O63  1  0.83090850  0.66181700  0.11440700  1
  O  O64  1  0.33818300  0.16909150  0.11440700  1
  O  O65  1  0.16909150  0.83090850  0.11440700  1
  O  O66  1  0.27149400  0.72850600  0.18636600  1
  O  O67  1  0.27149400  0.54298800  0.18636600  1
  O  O68  1  0.39340400  0.28736000  0.30641900  1
  O  O69  1  0.10604400  0.39340400  0.30641900  1
  O  O70  1  0.28736000  0.89395600  0.30641900  1
  O  O71  1  0.71264000  0.10604400  0.30641900  1
  O  O72  1  0.89395600  0.60659600  0.30641900  1
  O  O73  1  0.60659600  0.89395600  0.69358100  1
  O  O74  1  0.28736000  0.39340400  0.69358100  1
  O  O75  1  0.60659600  0.71264000  0.30641900  1
  O  O76  1  0.10604400  0.71264000  0.69358100  1
  O  O77  1  0.89395600  0.28736000  0.69358100  1
  O  O78  1  0.39340400  0.10604400  0.69358100  1
  O  O79  1  0.71264000  0.60659600  0.69358100  1
  O  O80  1  0.60659600  0.71264000  0.69358100  1
  O  O81  1  0.89395600  0.60659600  0.69358100  1
  O  O82  1  0.71264000  0.10604400  0.69358100  1
  O  O83  1  0.28736000  0.89395600  0.69358100  1
  O  O84  1  0.10604400  0.39340400  0.69358100  1
  O  O85  1  0.39340400  0.10604400  0.30641900  1
  O  O86  1  0.71264000  0.60659600  0.30641900  1
  O  O87  1  0.39340400  0.28736000  0.69358100  1
  O  O88  1  0.89395600  0.28736000  0.30641900  1
  O  O89  1  0.10604400  0.71264000  0.30641900  1
  O  O90  1  0.60659600  0.89395600  0.30641900  1
  O  O91  1  0.28736000  0.39340400  0.30641900  1
  O  O92  1  0.27149400  0.72850600  0.81363400  1
  O  O93  1  0.54298800  0.27149400  0.81363400  1
  O  O94  1  0.72850600  0.45701200  0.81363400  1
  O  O95  1  0.27149400  0.54298800  0.81363400  1
  O  O96  1  0.45701200  0.72850600  0.81363400  1
  O  O97  1  0.72850600  0.45701200  0.18636600  1
  O  O98  1  0.72850600  0.27149400  0.18636600  1
  O  O99  1  0.72850600  0.27149400  0.81363400  1
  O  O100  1  0.54298800  0.27149400  0.18636600  1
  O  O101  1  0.45701200  0.72850600  0.18636600  1
