# generated using pymatgen
data_TlCu3Se2
_symmetry_space_group_name_H-M   'P 1'
_cell_length_a   15.02752800
_cell_length_b   3.94597000
_cell_length_c   8.64811919
_cell_angle_alpha   90.00000000
_cell_angle_beta   110.70471288
_cell_angle_gamma   90.00000000
_symmetry_Int_Tables_number   1
_chemical_formula_structural   TlCu3Se2
_chemical_formula_sum   'Tl4 Cu12 Se8'
_cell_volume   479.69732778
_cell_formula_units_Z   4
loop_
 _symmetry_equiv_pos_site_id
 _symmetry_equiv_pos_as_xyz
  1  'x, y, z'
loop_
 _atom_site_type_symbol
 _atom_site_label
 _atom_site_symmetry_multiplicity
 _atom_site_fract_x
 _atom_site_fract_y
 _atom_site_fract_z
 _atom_site_occupancy
  Tl  Tl0  1  0.13966700  0.00000000  0.05192500  1
  Tl  Tl1  1  0.36033300  0.50000000  0.94807500  1
  Tl  Tl2  1  0.63966700  0.50000000  0.05192500  1
  Tl  Tl3  1  0.86033300  0.00000000  0.94807500  1
  Cu  Cu4  1  0.31246000  0.00000000  0.54965600  1
  Cu  Cu5  1  0.18754000  0.50000000  0.45034400  1
  Cu  Cu6  1  0.41837400  0.00000000  0.37350000  1
  Cu  Cu7  1  0.08162600  0.50000000  0.62650000  1
  Cu  Cu8  1  0.44281800  0.50000000  0.59114200  1
  Cu  Cu9  1  0.05718200  0.00000000  0.40885800  1
  Cu  Cu10  1  0.81246000  0.50000000  0.54965600  1
  Cu  Cu11  1  0.68754000  0.00000000  0.45034400  1
  Cu  Cu12  1  0.91837400  0.50000000  0.37350000  1
  Cu  Cu13  1  0.58162600  0.00000000  0.62650000  1
  Cu  Cu14  1  0.94281800  0.00000000  0.59114200  1
  Cu  Cu15  1  0.55718200  0.50000000  0.40885800  1
  Se  Se16  1  0.02555600  0.50000000  0.22335500  1
  Se  Se17  1  0.47444400  0.00000000  0.77664500  1
  Se  Se18  1  0.30720100  0.50000000  0.32280500  1
  Se  Se19  1  0.19279900  0.00000000  0.67719500  1
  Se  Se20  1  0.52555600  0.00000000  0.22335500  1
  Se  Se21  1  0.97444400  0.50000000  0.77664500  1
  Se  Se22  1  0.80720100  0.00000000  0.32280500  1
  Se  Se23  1  0.69279900  0.50000000  0.67719500  1
