# generated using pymatgen
data_Ca4PtO6
_symmetry_space_group_name_H-M   'P 1'
_cell_length_a   9.43790031
_cell_length_b   9.43790031
_cell_length_c   11.31428837
_cell_angle_alpha   90.00000000
_cell_angle_beta   90.00000000
_cell_angle_gamma   120.00000000
_symmetry_Int_Tables_number   1
_chemical_formula_structural   Ca4PtO6
_chemical_formula_sum   'Ca24 Pt6 O36'
_cell_volume   872.78775972
_cell_formula_units_Z   6
loop_
 _symmetry_equiv_pos_site_id
 _symmetry_equiv_pos_as_xyz
  1  'x, y, z'
loop_
 _atom_site_type_symbol
 _atom_site_label
 _atom_site_symmetry_multiplicity
 _atom_site_fract_x
 _atom_site_fract_y
 _atom_site_fract_z
 _atom_site_occupancy
  Ca  Ca0  1  0.69548833  0.66666667  0.41666667  1
  Ca  Ca1  1  0.33333333  0.02882167  0.41666667  1
  Ca  Ca2  1  0.97117833  0.30451167  0.41666667  1
  Ca  Ca3  1  0.30451167  0.33333333  0.58333333  1
  Ca  Ca4  1  0.66666667  0.97117833  0.58333333  1
  Ca  Ca5  1  0.02882167  0.69548833  0.58333333  1
  Ca  Ca6  1  0.00000000  0.00000000  0.25000000  1
  Ca  Ca7  1  0.00000000  0.00000000  0.75000000  1
  Ca  Ca8  1  0.36215500  0.00000000  0.75000000  1
  Ca  Ca9  1  0.00000000  0.36215500  0.75000000  1
  Ca  Ca10  1  0.63784500  0.63784500  0.75000000  1
  Ca  Ca11  1  0.97117833  0.66666667  0.91666667  1
  Ca  Ca12  1  0.33333333  0.30451167  0.91666667  1
  Ca  Ca13  1  0.69548833  0.02882167  0.91666667  1
  Ca  Ca14  1  0.66666667  0.33333333  0.58333333  1
  Ca  Ca15  1  0.66666667  0.33333333  0.08333333  1
  Ca  Ca16  1  0.02882167  0.33333333  0.08333333  1
  Ca  Ca17  1  0.66666667  0.69548833  0.08333333  1
  Ca  Ca18  1  0.30451167  0.97117833  0.08333333  1
  Ca  Ca19  1  0.63784500  0.00000000  0.25000000  1
  Ca  Ca20  1  0.00000000  0.63784500  0.25000000  1
  Ca  Ca21  1  0.36215500  0.36215500  0.25000000  1
  Ca  Ca22  1  0.33333333  0.66666667  0.91666667  1
  Ca  Ca23  1  0.33333333  0.66666667  0.41666667  1
  Pt  Pt24  1  0.00000000  0.00000000  0.50000000  1
  Pt  Pt25  1  0.00000000  0.00000000  0.00000000  1
  Pt  Pt26  1  0.66666667  0.33333333  0.83333333  1
  Pt  Pt27  1  0.66666667  0.33333333  0.33333333  1
  Pt  Pt28  1  0.33333333  0.66666667  0.16666667  1
  Pt  Pt29  1  0.33333333  0.66666667  0.66666667  1
  O  O30  1  0.80663767  0.96450933  0.39492333  1
  O  O31  1  0.03549067  0.84212833  0.39492333  1
  O  O32  1  0.15787167  0.19336233  0.39492333  1
  O  O33  1  0.50879500  0.36882400  0.43841000  1
  O  O34  1  0.63117600  0.13997100  0.43841000  1
  O  O35  1  0.86002900  0.49120500  0.43841000  1
  O  O36  1  0.19336233  0.03549067  0.60507667  1
  O  O37  1  0.96450933  0.15787167  0.60507667  1
  O  O38  1  0.84212833  0.80663767  0.60507667  1
  O  O39  1  0.49120500  0.63117600  0.56159000  1
  O  O40  1  0.13997100  0.50879500  0.56159000  1
  O  O41  1  0.36882400  0.86002900  0.56159000  1
  O  O42  1  0.47330433  0.29784267  0.72825667  1
  O  O43  1  0.70215733  0.17546167  0.72825667  1
  O  O44  1  0.82453833  0.52669567  0.72825667  1
  O  O45  1  0.17546167  0.70215733  0.77174333  1
  O  O46  1  0.29784267  0.47330433  0.77174333  1
  O  O47  1  0.52669567  0.82453833  0.77174333  1
  O  O48  1  0.86002900  0.36882400  0.93841000  1
  O  O49  1  0.63117600  0.49120500  0.93841000  1
  O  O50  1  0.50879500  0.13997100  0.93841000  1
  O  O51  1  0.15787167  0.96450933  0.89492333  1
  O  O52  1  0.80663767  0.84212833  0.89492333  1
  O  O53  1  0.03549067  0.19336233  0.89492333  1
  O  O54  1  0.13997100  0.63117600  0.06159000  1
  O  O55  1  0.36882400  0.50879500  0.06159000  1
  O  O56  1  0.49120500  0.86002900  0.06159000  1
  O  O57  1  0.84212833  0.03549067  0.10507667  1
  O  O58  1  0.96450933  0.80663767  0.10507667  1
  O  O59  1  0.19336233  0.15787167  0.10507667  1
  O  O60  1  0.52669567  0.70215733  0.27174333  1
  O  O61  1  0.29784267  0.82453833  0.27174333  1
  O  O62  1  0.17546167  0.47330433  0.27174333  1
  O  O63  1  0.82453833  0.29784267  0.22825667  1
  O  O64  1  0.47330433  0.17546167  0.22825667  1
  O  O65  1  0.70215733  0.52669567  0.22825667  1
