# generated using pymatgen
data_Na7V2O6
_symmetry_space_group_name_H-M   'P 1'
_cell_length_a   15.24635200
_cell_length_b   5.83243600
_cell_length_c   10.69702024
_cell_angle_alpha   90.00000000
_cell_angle_beta   104.60438912
_cell_angle_gamma   90.00000000
_symmetry_Int_Tables_number   1
_chemical_formula_structural   Na7V2O6
_chemical_formula_sum   'Na28 V8 O24'
_cell_volume   920.48121790
_cell_formula_units_Z   4
loop_
 _symmetry_equiv_pos_site_id
 _symmetry_equiv_pos_as_xyz
  1  'x, y, z'
loop_
 _atom_site_type_symbol
 _atom_site_label
 _atom_site_symmetry_multiplicity
 _atom_site_fract_x
 _atom_site_fract_y
 _atom_site_fract_z
 _atom_site_occupancy
  Na  Na0  1  0.93854050  0.63570950  0.85002100  1
  Na  Na1  1  0.83093550  0.40696450  0.59357500  1
  Na  Na2  1  0.93854050  0.36429050  0.35002100  1
  Na  Na3  1  0.77347750  0.96147050  0.69235600  1
  Na  Na4  1  0.83093550  0.59303550  0.09357500  1
  Na  Na5  1  0.72652250  0.46147050  0.80764400  1
  Na  Na6  1  0.77347750  0.03852950  0.19235600  1
  Na  Na7  1  0.66906450  0.90696450  0.90642500  1
  Na  Na8  1  0.72652250  0.53852950  0.30764400  1
  Na  Na9  1  0.56145950  0.13570950  0.64997900  1
  Na  Na10  1  0.66906450  0.09303550  0.40642500  1
  Na  Na11  1  0.00000000  0.07804100  0.75000000  1
  Na  Na12  1  0.56145950  0.86429050  0.14997900  1
  Na  Na13  1  0.00000000  0.92195900  0.25000000  1
  Na  Na14  1  0.43854050  0.13570950  0.85002100  1
  Na  Na15  1  0.33093550  0.90696450  0.59357500  1
  Na  Na16  1  0.43854050  0.86429050  0.35002100  1
  Na  Na17  1  0.27347750  0.46147050  0.69235600  1
  Na  Na18  1  0.33093550  0.09303550  0.09357500  1
  Na  Na19  1  0.22652250  0.96147050  0.80764400  1
  Na  Na20  1  0.27347750  0.53852950  0.19235600  1
  Na  Na21  1  0.16906450  0.40696450  0.90642500  1
  Na  Na22  1  0.22652250  0.03852950  0.30764400  1
  Na  Na23  1  0.06145950  0.63570950  0.64997900  1
  Na  Na24  1  0.16906450  0.59303550  0.40642500  1
  Na  Na25  1  0.50000000  0.57804100  0.75000000  1
  Na  Na26  1  0.06145950  0.36429050  0.14997900  1
  Na  Na27  1  0.50000000  0.42195900  0.25000000  1
  V  V28  1  0.88170450  0.11080250  0.96447800  1
  V  V29  1  0.88170450  0.88919750  0.46447800  1
  V  V30  1  0.61829550  0.61080250  0.53552200  1
  V  V31  1  0.61829550  0.38919750  0.03552200  1
  V  V32  1  0.38170450  0.61080250  0.96447800  1
  V  V33  1  0.38170450  0.38919750  0.46447800  1
  V  V34  1  0.11829550  0.11080250  0.53552200  1
  V  V35  1  0.11829550  0.88919750  0.03552200  1
  O  O36  1  0.90689350  0.76508250  0.62546400  1
  O  O37  1  0.87586850  0.27004750  0.81051900  1
  O  O38  1  0.90689350  0.23491750  0.12546400  1
  O  O39  1  0.82383850  0.83292250  0.91577300  1
  O  O40  1  0.87586850  0.72995250  0.31051900  1
  O  O41  1  0.67616150  0.33292250  0.58422700  1
  O  O42  1  0.82383850  0.16707750  0.41577300  1
  O  O43  1  0.62413150  0.77004750  0.68948100  1
  O  O44  1  0.67616150  0.66707750  0.08422700  1
  O  O45  1  0.59310650  0.26508250  0.87453600  1
  O  O46  1  0.62413150  0.22995250  0.18948100  1
  O  O47  1  0.59310650  0.73491750  0.37453600  1
  O  O48  1  0.40689350  0.26508250  0.62546400  1
  O  O49  1  0.37586850  0.77004750  0.81051900  1
  O  O50  1  0.40689350  0.73491750  0.12546400  1
  O  O51  1  0.32383850  0.33292250  0.91577300  1
  O  O52  1  0.37586850  0.22995250  0.31051900  1
  O  O53  1  0.17616150  0.83292250  0.58422700  1
  O  O54  1  0.32383850  0.66707750  0.41577300  1
  O  O55  1  0.12413150  0.27004750  0.68948100  1
  O  O56  1  0.17616150  0.16707750  0.08422700  1
  O  O57  1  0.09310650  0.76508250  0.87453600  1
  O  O58  1  0.12413150  0.72995250  0.18948100  1
  O  O59  1  0.09310650  0.23491750  0.37453600  1
