# generated using pymatgen
data_NaSc(BH4)4
_symmetry_space_group_name_H-M   'P 1'
_cell_length_a   8.22700400
_cell_length_b   11.81107400
_cell_length_c   8.73494300
_cell_angle_alpha   90.00000000
_cell_angle_beta   90.00000000
_cell_angle_gamma   90.00000000
_symmetry_Int_Tables_number   1
_chemical_formula_structural   NaSc(BH4)4
_chemical_formula_sum   'Na4 Sc4 B16 H64'
_cell_volume   848.77225415
_cell_formula_units_Z   4
loop_
 _symmetry_equiv_pos_site_id
 _symmetry_equiv_pos_as_xyz
  1  'x, y, z'
loop_
 _atom_site_type_symbol
 _atom_site_label
 _atom_site_symmetry_multiplicity
 _atom_site_fract_x
 _atom_site_fract_y
 _atom_site_fract_z
 _atom_site_occupancy
  Na  Na0  1  0.00000000  0.00000000  0.00000000  1
  Na  Na1  1  0.00000000  0.00000000  0.50000000  1
  Na  Na2  1  0.50000000  0.50000000  0.00000000  1
  Na  Na3  1  0.50000000  0.50000000  0.50000000  1
  Sc  Sc4  1  0.50000000  0.14068100  0.25000000  1
  Sc  Sc5  1  0.50000000  0.85931900  0.75000000  1
  Sc  Sc6  1  0.00000000  0.64068100  0.25000000  1
  Sc  Sc7  1  0.00000000  0.35931900  0.75000000  1
  B  B8  1  0.50000000  0.25165800  0.46648500  1
  B  B9  1  0.50000000  0.74834200  0.96648500  1
  B  B10  1  0.50000000  0.74834200  0.53351500  1
  B  B11  1  0.50000000  0.25165800  0.03351500  1
  B  B12  1  0.73019100  0.02634300  0.25000000  1
  B  B13  1  0.26980900  0.97365700  0.75000000  1
  B  B14  1  0.73019100  0.97365700  0.75000000  1
  B  B15  1  0.26980900  0.02634300  0.25000000  1
  B  B16  1  0.00000000  0.75165800  0.46648500  1
  B  B17  1  0.00000000  0.24834200  0.96648500  1
  B  B18  1  0.00000000  0.24834200  0.53351500  1
  B  B19  1  0.00000000  0.75165800  0.03351500  1
  B  B20  1  0.23019100  0.52634300  0.25000000  1
  B  B21  1  0.76980900  0.47365700  0.75000000  1
  B  B22  1  0.23019100  0.47365700  0.75000000  1
  B  B23  1  0.76980900  0.52634300  0.25000000  1
  H  H24  1  0.50000000  0.14963000  0.49822900  1
  H  H25  1  0.50000000  0.85037000  0.99822900  1
  H  H26  1  0.50000000  0.85037000  0.50177100  1
  H  H27  1  0.50000000  0.14963000  0.00177100  1
  H  H28  1  0.62098050  0.26838150  0.38499400  1
  H  H29  1  0.37901950  0.73161850  0.88499400  1
  H  H30  1  0.62098050  0.73161850  0.61500600  1
  H  H31  1  0.37901950  0.26838150  0.11500600  1
  H  H32  1  0.37901950  0.73161850  0.61500600  1
  H  H33  1  0.62098050  0.26838150  0.11500600  1
  H  H34  1  0.37901950  0.26838150  0.38499400  1
  H  H35  1  0.62098050  0.73161850  0.88499400  1
  H  H36  1  0.50000000  0.30740200  0.58184000  1
  H  H37  1  0.50000000  0.69259800  0.08184000  1
  H  H38  1  0.50000000  0.69259800  0.41816000  1
  H  H39  1  0.50000000  0.30740200  0.91816000  1
  H  H40  1  0.64555650  0.00722650  0.36357800  1
  H  H41  1  0.35444350  0.99277350  0.86357800  1
  H  H42  1  0.64555650  0.99277350  0.63642200  1
  H  H43  1  0.35444350  0.00722650  0.13642200  1
  H  H44  1  0.35444350  0.99277350  0.63642200  1
  H  H45  1  0.64555650  0.00722650  0.13642200  1
  H  H46  1  0.35444350  0.00722650  0.36357800  1
  H  H47  1  0.64555650  0.99277350  0.86357800  1
  H  H48  1  0.85093300  0.96795800  0.25000000  1
  H  H49  1  0.14906700  0.03204200  0.75000000  1
  H  H50  1  0.85093300  0.03204200  0.75000000  1
  H  H51  1  0.14906700  0.96795800  0.25000000  1
  H  H52  1  0.76303150  0.12850850  0.25000000  1
  H  H53  1  0.23696850  0.87149150  0.75000000  1
  H  H54  1  0.76303150  0.87149150  0.75000000  1
  H  H55  1  0.23696850  0.12850850  0.25000000  1
  H  H56  1  0.00000000  0.64963000  0.49822900  1
  H  H57  1  0.00000000  0.35037000  0.99822900  1
  H  H58  1  0.00000000  0.35037000  0.50177100  1
  H  H59  1  0.00000000  0.64963000  0.00177100  1
  H  H60  1  0.12098050  0.76838150  0.38499400  1
  H  H61  1  0.87901950  0.23161850  0.88499400  1
  H  H62  1  0.12098050  0.23161850  0.61500600  1
  H  H63  1  0.87901950  0.76838150  0.11500600  1
  H  H64  1  0.87901950  0.23161850  0.61500600  1
  H  H65  1  0.12098050  0.76838150  0.11500600  1
  H  H66  1  0.87901950  0.76838150  0.38499400  1
  H  H67  1  0.12098050  0.23161850  0.88499400  1
  H  H68  1  0.00000000  0.80740200  0.58184000  1
  H  H69  1  0.00000000  0.19259800  0.08184000  1
  H  H70  1  0.00000000  0.19259800  0.41816000  1
  H  H71  1  0.00000000  0.80740200  0.91816000  1
  H  H72  1  0.14555650  0.50722650  0.36357800  1
  H  H73  1  0.85444350  0.49277350  0.86357800  1
  H  H74  1  0.14555650  0.49277350  0.63642200  1
  H  H75  1  0.85444350  0.50722650  0.13642200  1
  H  H76  1  0.85444350  0.49277350  0.63642200  1
  H  H77  1  0.14555650  0.50722650  0.13642200  1
  H  H78  1  0.85444350  0.50722650  0.36357800  1
  H  H79  1  0.14555650  0.49277350  0.86357800  1
  H  H80  1  0.35093300  0.46795800  0.25000000  1
  H  H81  1  0.64906700  0.53204200  0.75000000  1
  H  H82  1  0.35093300  0.53204200  0.75000000  1
  H  H83  1  0.64906700  0.46795800  0.25000000  1
  H  H84  1  0.26303150  0.62850850  0.25000000  1
  H  H85  1  0.73696850  0.37149150  0.75000000  1
  H  H86  1  0.26303150  0.37149150  0.75000000  1
  H  H87  1  0.73696850  0.62850850  0.25000000  1
