# generated using pymatgen
data_Li2Sn(PO3)4
_symmetry_space_group_name_H-M   'P 1'
_cell_length_a   9.24838600
_cell_length_b   15.82634000
_cell_length_c   7.39143725
_cell_angle_alpha   90.00000000
_cell_angle_beta   91.79481428
_cell_angle_gamma   90.00000000
_symmetry_Int_Tables_number   1
_chemical_formula_structural   Li2Sn(PO3)4
_chemical_formula_sum   'Li8 Sn4 P16 O48'
_cell_volume   1081.33986874
_cell_formula_units_Z   4
loop_
 _symmetry_equiv_pos_site_id
 _symmetry_equiv_pos_as_xyz
  1  'x, y, z'
loop_
 _atom_site_type_symbol
 _atom_site_label
 _atom_site_symmetry_multiplicity
 _atom_site_fract_x
 _atom_site_fract_y
 _atom_site_fract_z
 _atom_site_occupancy
  Li  Li0  1  0.35753700  0.15615300  0.81776400  1
  Li  Li1  1  0.35753700  0.84384700  0.31776400  1
  Li  Li2  1  0.64246300  0.15615300  0.68223600  1
  Li  Li3  1  0.64246300  0.84384700  0.18223600  1
  Li  Li4  1  0.85753700  0.65615300  0.81776400  1
  Li  Li5  1  0.85753700  0.34384700  0.31776400  1
  Li  Li6  1  0.14246300  0.65615300  0.68223600  1
  Li  Li7  1  0.14246300  0.34384700  0.18223600  1
  Sn  Sn8  1  0.50000000  0.63088700  0.75000000  1
  Sn  Sn9  1  0.50000000  0.36911300  0.25000000  1
  Sn  Sn10  1  0.00000000  0.13088700  0.75000000  1
  Sn  Sn11  1  0.00000000  0.86911300  0.25000000  1
  P  P12  1  0.15026200  0.92348600  0.67759500  1
  P  P13  1  0.15026200  0.07651400  0.17759500  1
  P  P14  1  0.38169150  0.83623950  0.88382300  1
  P  P15  1  0.38169150  0.16376050  0.38382300  1
  P  P16  1  0.61830850  0.83623950  0.61617700  1
  P  P17  1  0.61830850  0.16376050  0.11617700  1
  P  P18  1  0.84973800  0.92348600  0.82240500  1
  P  P19  1  0.84973800  0.07651400  0.32240500  1
  P  P20  1  0.65026200  0.42348600  0.67759500  1
  P  P21  1  0.65026200  0.57651400  0.17759500  1
  P  P22  1  0.88169150  0.33623950  0.88382300  1
  P  P23  1  0.88169150  0.66376050  0.38382300  1
  P  P24  1  0.11830850  0.33623950  0.61617700  1
  P  P25  1  0.11830850  0.66376050  0.11617700  1
  P  P26  1  0.34973800  0.42348600  0.82240500  1
  P  P27  1  0.34973800  0.57651400  0.32240500  1
  O  O28  1  0.14034750  0.01805650  0.65928500  1
  O  O29  1  0.14034750  0.98194350  0.15928500  1
  O  O30  1  0.19321800  0.87263000  0.51482700  1
  O  O31  1  0.19321800  0.12737000  0.01482700  1
  O  O32  1  0.25597500  0.90514400  0.84965000  1
  O  O33  1  0.25597500  0.09485600  0.34965000  1
  O  O34  1  0.33015550  0.75011450  0.82150500  1
  O  O35  1  0.33015550  0.24988550  0.32150500  1
  O  O36  1  0.44025750  0.15082450  0.57374800  1
  O  O37  1  0.50000000  0.38379800  0.75000000  1
  O  O38  1  0.50000000  0.87396100  0.75000000  1
  O  O39  1  0.44025750  0.84917550  0.07374800  1
  O  O40  1  0.55974250  0.15082450  0.92625200  1
  O  O41  1  0.50000000  0.12603900  0.25000000  1
  O  O42  1  0.50000000  0.61620200  0.25000000  1
  O  O43  1  0.55974250  0.84917550  0.42625200  1
  O  O44  1  0.66984450  0.75011450  0.67849500  1
  O  O45  1  0.66984450  0.24988550  0.17849500  1
  O  O46  1  0.74402500  0.90514400  0.65035000  1
  O  O47  1  0.74402500  0.09485600  0.15035000  1
  O  O48  1  0.80678200  0.87263000  0.98517300  1
  O  O49  1  0.80678200  0.12737000  0.48517300  1
  O  O50  1  0.85965250  0.01805650  0.84071500  1
  O  O51  1  0.85965250  0.98194350  0.34071500  1
  O  O52  1  0.64034750  0.51805650  0.65928500  1
  O  O53  1  0.64034750  0.48194350  0.15928500  1
  O  O54  1  0.69321800  0.37263000  0.51482700  1
  O  O55  1  0.69321800  0.62737000  0.01482700  1
  O  O56  1  0.75597500  0.40514400  0.84965000  1
  O  O57  1  0.75597500  0.59485600  0.34965000  1
  O  O58  1  0.83015550  0.25011450  0.82150500  1
  O  O59  1  0.83015550  0.74988550  0.32150500  1
  O  O60  1  0.94025750  0.65082450  0.57374800  1
  O  O61  1  0.00000000  0.88379800  0.75000000  1
  O  O62  1  0.00000000  0.37396100  0.75000000  1
  O  O63  1  0.94025750  0.34917550  0.07374800  1
  O  O64  1  0.05974250  0.65082450  0.92625200  1
  O  O65  1  0.00000000  0.62603900  0.25000000  1
  O  O66  1  0.00000000  0.11620200  0.25000000  1
  O  O67  1  0.05974250  0.34917550  0.42625200  1
  O  O68  1  0.16984450  0.25011450  0.67849500  1
  O  O69  1  0.16984450  0.74988550  0.17849500  1
  O  O70  1  0.24402500  0.40514400  0.65035000  1
  O  O71  1  0.24402500  0.59485600  0.15035000  1
  O  O72  1  0.30678200  0.37263000  0.98517300  1
  O  O73  1  0.30678200  0.62737000  0.48517300  1
  O  O74  1  0.35965250  0.51805650  0.84071500  1
  O  O75  1  0.35965250  0.48194350  0.34071500  1
