# generated using pymatgen
data_Li7Cu(SiO4)2
_symmetry_space_group_name_H-M   'P 1'
_cell_length_a   15.50456600
_cell_length_b   6.34736400
_cell_length_c   7.81158153
_cell_angle_alpha   90.00000000
_cell_angle_beta   90.65762362
_cell_angle_gamma   90.00000000
_symmetry_Int_Tables_number   1
_chemical_formula_structural   Li7Cu(SiO4)2
_chemical_formula_sum   'Li28 Cu4 Si8 O32'
_cell_volume   768.71150574
_cell_formula_units_Z   4
loop_
 _symmetry_equiv_pos_site_id
 _symmetry_equiv_pos_as_xyz
  1  'x, y, z'
loop_
 _atom_site_type_symbol
 _atom_site_label
 _atom_site_symmetry_multiplicity
 _atom_site_fract_x
 _atom_site_fract_y
 _atom_site_fract_z
 _atom_site_occupancy
  Li  Li0  1  0.91535200  0.74275000  0.62596100  1
  Li  Li1  1  0.91535200  0.25725000  0.62596100  1
  Li  Li2  1  0.92716700  0.00000000  0.29578400  1
  Li  Li3  1  0.85189600  0.50000000  0.85331500  1
  Li  Li4  1  0.81548200  0.24575100  0.15803300  1
  Li  Li5  1  0.81548200  0.75424900  0.15803300  1
  Li  Li6  1  0.68451800  0.25424900  0.84196700  1
  Li  Li7  1  0.68451800  0.74575100  0.84196700  1
  Li  Li8  1  0.64810400  0.00000000  0.14668500  1
  Li  Li9  1  0.57283300  0.50000000  0.70421600  1
  Li  Li10  1  0.58464800  0.75725000  0.37403900  1
  Li  Li11  1  0.58464800  0.24275000  0.37403900  1
  Li  Li12  1  0.00000000  0.00000000  0.00000000  1
  Li  Li13  1  0.00000000  0.50000000  0.00000000  1
  Li  Li14  1  0.41535200  0.24275000  0.62596100  1
  Li  Li15  1  0.41535200  0.75725000  0.62596100  1
  Li  Li16  1  0.42716700  0.50000000  0.29578400  1
  Li  Li17  1  0.35189600  0.00000000  0.85331500  1
  Li  Li18  1  0.31548200  0.74575100  0.15803300  1
  Li  Li19  1  0.31548200  0.25424900  0.15803300  1
  Li  Li20  1  0.18451800  0.75424900  0.84196700  1
  Li  Li21  1  0.18451800  0.24575100  0.84196700  1
  Li  Li22  1  0.14810400  0.50000000  0.14668500  1
  Li  Li23  1  0.07283300  0.00000000  0.70421600  1
  Li  Li24  1  0.08464800  0.25725000  0.37403900  1
  Li  Li25  1  0.08464800  0.74275000  0.37403900  1
  Li  Li26  1  0.50000000  0.50000000  0.00000000  1
  Li  Li27  1  0.50000000  0.00000000  0.00000000  1
  Cu  Cu28  1  0.73245300  0.00000000  0.59849200  1
  Cu  Cu29  1  0.76754700  0.50000000  0.40150800  1
  Cu  Cu30  1  0.23245300  0.50000000  0.59849200  1
  Cu  Cu31  1  0.26754700  0.00000000  0.40150800  1
  Si  Si32  1  0.92734800  0.50000000  0.28800900  1
  Si  Si33  1  0.85515000  0.00000000  0.85064200  1
  Si  Si34  1  0.64485000  0.50000000  0.14935800  1
  Si  Si35  1  0.57265200  0.00000000  0.71199100  1
  Si  Si36  1  0.42734800  0.00000000  0.28800900  1
  Si  Si37  1  0.35515000  0.50000000  0.85064200  1
  Si  Si38  1  0.14485000  0.00000000  0.14935800  1
  Si  Si39  1  0.07265200  0.50000000  0.71199100  1
  O  O40  1  0.96775800  0.50000000  0.73720100  1
  O  O41  1  0.95160700  0.00000000  0.76297600  1
  O  O42  1  0.89048600  0.71440000  0.38484800  1
  O  O43  1  0.89048600  0.28560000  0.38484800  1
  O  O44  1  0.88350700  0.50000000  0.09235600  1
  O  O45  1  0.86757900  0.00000000  0.06000900  1
  O  O46  1  0.80448350  0.78593450  0.77973800  1
  O  O47  1  0.80448350  0.21406550  0.77973800  1
  O  O48  1  0.69551650  0.28593450  0.22026200  1
  O  O49  1  0.69551650  0.71406550  0.22026200  1
  O  O50  1  0.63242100  0.50000000  0.93999100  1
  O  O51  1  0.61649300  0.00000000  0.90764400  1
  O  O52  1  0.60951400  0.78560000  0.61515200  1
  O  O53  1  0.60951400  0.21440000  0.61515200  1
  O  O54  1  0.54839300  0.50000000  0.23702400  1
  O  O55  1  0.53224200  0.00000000  0.26279900  1
  O  O56  1  0.46775800  0.00000000  0.73720100  1
  O  O57  1  0.45160700  0.50000000  0.76297600  1
  O  O58  1  0.39048600  0.21440000  0.38484800  1
  O  O59  1  0.39048600  0.78560000  0.38484800  1
  O  O60  1  0.38350700  0.00000000  0.09235600  1
  O  O61  1  0.36757900  0.50000000  0.06000900  1
  O  O62  1  0.30448350  0.28593450  0.77973800  1
  O  O63  1  0.30448350  0.71406550  0.77973800  1
  O  O64  1  0.19551650  0.78593450  0.22026200  1
  O  O65  1  0.19551650  0.21406550  0.22026200  1
  O  O66  1  0.13242100  0.00000000  0.93999100  1
  O  O67  1  0.11649300  0.50000000  0.90764400  1
  O  O68  1  0.10951400  0.28560000  0.61515200  1
  O  O69  1  0.10951400  0.71440000  0.61515200  1
  O  O70  1  0.04839300  0.00000000  0.23702400  1
  O  O71  1  0.03224200  0.50000000  0.26279900  1
