# generated using pymatgen
data_K2Sn2O3
_symmetry_space_group_name_H-M   'P 1'
_cell_length_a   8.51421600
_cell_length_b   8.51421600
_cell_length_c   8.51421600
_cell_angle_alpha   90.00000000
_cell_angle_beta   90.00000000
_cell_angle_gamma   90.00000000
_symmetry_Int_Tables_number   1
_chemical_formula_structural   K2Sn2O3
_chemical_formula_sum   'K8 Sn8 O12'
_cell_volume   617.21147429
_cell_formula_units_Z   4
loop_
 _symmetry_equiv_pos_site_id
 _symmetry_equiv_pos_as_xyz
  1  'x, y, z'
loop_
 _atom_site_type_symbol
 _atom_site_label
 _atom_site_symmetry_multiplicity
 _atom_site_fract_x
 _atom_site_fract_y
 _atom_site_fract_z
 _atom_site_occupancy
  K  K0  1  0.99095000  0.49095000  0.00905000  1
  K  K1  1  0.00905000  0.00905000  0.00905000  1
  K  K2  1  0.00905000  0.99095000  0.49095000  1
  K  K3  1  0.49095000  0.00905000  0.99095000  1
  K  K4  1  0.49095000  0.99095000  0.50905000  1
  K  K5  1  0.50905000  0.50905000  0.50905000  1
  K  K6  1  0.50905000  0.49095000  0.99095000  1
  K  K7  1  0.99095000  0.50905000  0.49095000  1
  Sn  Sn8  1  0.25581150  0.24418850  0.75581150  1
  Sn  Sn9  1  0.24418850  0.75581150  0.25581150  1
  Sn  Sn10  1  0.24418850  0.24418850  0.24418850  1
  Sn  Sn11  1  0.75581150  0.25581150  0.24418850  1
  Sn  Sn12  1  0.75581150  0.74418850  0.25581150  1
  Sn  Sn13  1  0.74418850  0.25581150  0.75581150  1
  Sn  Sn14  1  0.74418850  0.74418850  0.74418850  1
  Sn  Sn15  1  0.25581150  0.75581150  0.74418850  1
  O  O16  1  0.00000000  0.75000000  0.22927300  1
  O  O17  1  0.00000000  0.25000000  0.27072700  1
  O  O18  1  0.75000000  0.22927300  0.00000000  1
  O  O19  1  0.22927300  0.00000000  0.75000000  1
  O  O20  1  0.27072700  0.00000000  0.25000000  1
  O  O21  1  0.25000000  0.27072700  0.00000000  1
  O  O22  1  0.50000000  0.25000000  0.72927300  1
  O  O23  1  0.50000000  0.75000000  0.77072700  1
  O  O24  1  0.25000000  0.72927300  0.50000000  1
  O  O25  1  0.72927300  0.50000000  0.25000000  1
  O  O26  1  0.77072700  0.50000000  0.75000000  1
  O  O27  1  0.75000000  0.77072700  0.50000000  1
