# generated using pymatgen
data_SrSn(BO3)2
_symmetry_space_group_name_H-M   'P 1'
_cell_length_a   4.99957033
_cell_length_b   4.99957033
_cell_length_c   17.10566056
_cell_angle_alpha   90.00000000
_cell_angle_beta   90.00000000
_cell_angle_gamma   120.00000000
_symmetry_Int_Tables_number   1
_chemical_formula_structural   SrSn(BO3)2
_chemical_formula_sum   'Sr3 Sn3 B6 O18'
_cell_volume   370.28476600
_cell_formula_units_Z   3
loop_
 _symmetry_equiv_pos_site_id
 _symmetry_equiv_pos_as_xyz
  1  'x, y, z'
loop_
 _atom_site_type_symbol
 _atom_site_label
 _atom_site_symmetry_multiplicity
 _atom_site_fract_x
 _atom_site_fract_y
 _atom_site_fract_z
 _atom_site_occupancy
  Sr  Sr0  1  0.00000000  0.00000000  0.00000000  1
  Sr  Sr1  1  0.66666667  0.33333333  0.33333333  1
  Sr  Sr2  1  0.33333333  0.66666667  0.66666667  1
  Sn  Sn3  1  0.33333333  0.66666667  0.16666667  1
  Sn  Sn4  1  1.00000000  0.00000000  0.50000000  1
  Sn  Sn5  1  0.66666667  0.33333333  0.83333333  1
  B  B6  1  0.00000000  0.00000000  0.23498100  1
  B  B7  1  0.66666667  0.33333333  0.09835233  1
  B  B8  1  0.66666667  0.33333333  0.56831433  1
  B  B9  1  0.33333333  0.66666667  0.43168567  1
  B  B10  1  0.33333333  0.66666667  0.90164767  1
  B  B11  1  0.00000000  0.00000000  0.76501900  1
  O  O12  1  0.70372600  0.74713300  0.23854000  1
  O  O13  1  0.25286700  0.95659300  0.23854000  1
  O  O14  1  0.62325967  0.03705933  0.09479333  1
  O  O15  1  0.96294067  0.58620033  0.09479333  1
  O  O16  1  0.41379967  0.37674033  0.09479333  1
  O  O17  1  0.04340700  0.29627400  0.23854000  1
  O  O18  1  0.37039267  0.08046633  0.57187333  1
  O  O19  1  0.91953367  0.28992633  0.57187333  1
  O  O20  1  0.28992633  0.37039267  0.42812667  1
  O  O21  1  0.62960733  0.91953367  0.42812667  1
  O  O22  1  0.08046633  0.71007367  0.42812667  1
  O  O23  1  0.71007367  0.62960733  0.57187333  1
  O  O24  1  0.03705933  0.41379967  0.90520667  1
  O  O25  1  0.58620033  0.62325967  0.90520667  1
  O  O26  1  0.95659300  0.70372600  0.76146000  1
  O  O27  1  0.29627400  0.25286700  0.76146000  1
  O  O28  1  0.74713300  0.04340700  0.76146000  1
  O  O29  1  0.37674033  0.96294067  0.90520667  1
