# generated using pymatgen
data_Li9V2P4HO18
_symmetry_space_group_name_H-M   'P 1'
_cell_length_a   6.87768000
_cell_length_b   14.15725400
_cell_length_c   14.55070400
_cell_angle_alpha   90.00000000
_cell_angle_beta   90.00000000
_cell_angle_gamma   90.00000000
_symmetry_Int_Tables_number   1
_chemical_formula_structural   Li9V2P4HO18
_chemical_formula_sum   'Li36 V8 P16 H4 O72'
_cell_volume   1416.78840997
_cell_formula_units_Z   4
loop_
 _symmetry_equiv_pos_site_id
 _symmetry_equiv_pos_as_xyz
  1  'x, y, z'
loop_
 _atom_site_type_symbol
 _atom_site_label
 _atom_site_symmetry_multiplicity
 _atom_site_fract_x
 _atom_site_fract_y
 _atom_site_fract_z
 _atom_site_occupancy
  Li  Li0  1  0.98956200  0.26870450  0.25468400  1
  Li  Li1  1  0.51043800  0.26870450  0.25468400  1
  Li  Li2  1  0.25000000  0.62843750  0.62907400  1
  Li  Li3  1  0.75000000  0.63171950  0.86724000  1
  Li  Li4  1  0.75000000  0.61433650  0.12624700  1
  Li  Li5  1  0.50000000  0.50000000  0.50412000  1
  Li  Li6  1  0.00000000  0.50000000  0.27168800  1
  Li  Li7  1  0.00000000  0.50000000  0.74789200  1
  Li  Li8  1  0.00000000  0.50000000  0.99023700  1
  Li  Li9  1  0.50000000  0.50000000  0.27168800  1
  Li  Li10  1  0.00000000  0.50000000  0.50412000  1
  Li  Li11  1  0.50000000  0.50000000  0.99023700  1
  Li  Li12  1  0.50000000  0.50000000  0.74789200  1
  Li  Li13  1  0.25000000  0.38566350  0.12624700  1
  Li  Li14  1  0.25000000  0.36828050  0.86724000  1
  Li  Li15  1  0.75000000  0.37156250  0.62907400  1
  Li  Li16  1  0.48956200  0.73129550  0.25468400  1
  Li  Li17  1  0.01043800  0.73129550  0.25468400  1
  Li  Li18  1  0.48956200  0.76870450  0.75468400  1
  Li  Li19  1  0.01043800  0.76870450  0.75468400  1
  Li  Li20  1  0.75000000  0.12843750  0.12907400  1
  Li  Li21  1  0.25000000  0.13171950  0.36724000  1
  Li  Li22  1  0.25000000  0.11433650  0.62624700  1
  Li  Li23  1  0.00000000  0.00000000  0.00412000  1
  Li  Li24  1  0.50000000  0.00000000  0.77168800  1
  Li  Li25  1  0.50000000  0.00000000  0.24789200  1
  Li  Li26  1  0.50000000  0.00000000  0.49023700  1
  Li  Li27  1  0.00000000  0.00000000  0.77168800  1
  Li  Li28  1  0.50000000  0.00000000  0.00412000  1
  Li  Li29  1  0.00000000  0.00000000  0.49023700  1
  Li  Li30  1  0.00000000  0.00000000  0.24789200  1
  Li  Li31  1  0.75000000  0.88566350  0.62624700  1
  Li  Li32  1  0.75000000  0.86828050  0.36724000  1
  Li  Li33  1  0.25000000  0.87156250  0.12907400  1
  Li  Li34  1  0.98956200  0.23129550  0.75468400  1
  Li  Li35  1  0.51043800  0.23129550  0.75468400  1
  V  V36  1  0.49672200  0.24402650  0.50143300  1
  V  V37  1  0.99672200  0.75597350  0.50143300  1
  V  V38  1  0.00327800  0.24402650  0.50143300  1
  V  V39  1  0.50327800  0.75597350  0.50143300  1
  V  V40  1  0.99672200  0.74402650  0.00143300  1
  V  V41  1  0.49672200  0.25597350  0.00143300  1
  V  V42  1  0.50327800  0.74402650  0.00143300  1
  V  V43  1  0.00327800  0.25597350  0.00143300  1
  P  P44  1  0.25000000  0.61180850  0.85878100  1
  P  P45  1  0.75000000  0.61601450  0.64060800  1
  P  P46  1  0.25000000  0.60912850  0.13934400  1
  P  P47  1  0.75000000  0.62021150  0.36484100  1
  P  P48  1  0.25000000  0.37978850  0.36484100  1
  P  P49  1  0.75000000  0.39087150  0.13934400  1
  P  P50  1  0.75000000  0.38819150  0.85878100  1
  P  P51  1  0.25000000  0.38398550  0.64060800  1
  P  P52  1  0.75000000  0.11180850  0.35878100  1
  P  P53  1  0.25000000  0.11601450  0.14060800  1
  P  P54  1  0.75000000  0.10912850  0.63934400  1
  P  P55  1  0.25000000  0.12021150  0.86484100  1
  P  P56  1  0.75000000  0.87978850  0.86484100  1
  P  P57  1  0.25000000  0.89087150  0.63934400  1
  P  P58  1  0.25000000  0.88819150  0.35878100  1
  P  P59  1  0.75000000  0.88398550  0.14060800  1
  H  H60  1  0.25000000  0.64436250  0.43936200  1
  H  H61  1  0.75000000  0.35563750  0.43936200  1
  H  H62  1  0.75000000  0.14436250  0.93936200  1
  H  H63  1  0.25000000  0.85563750  0.93936200  1
  O  O64  1  0.25000000  0.40170850  0.26040200  1
  O  O65  1  0.75000000  0.41135800  0.24265850  1
  O  O66  1  0.06361250  0.31966400  0.38215150  1
  O  O67  1  0.43638750  0.31966400  0.38215150  1
  O  O68  1  0.06447400  0.82934350  0.62009000  1
  O  O69  1  0.43552600  0.82934350  0.62009000  1
  O  O70  1  0.25000000  0.19772550  0.50767100  1
  O  O71  1  0.25000000  0.68564100  0.49297950  1
  O  O72  1  0.25000000  0.67283150  0.76985200  1
  O  O73  1  0.75000000  0.67344750  0.73190300  1
  O  O74  1  0.93939150  0.63756400  0.58523350  1
  O  O75  1  0.93814500  0.13072550  0.41602900  1
  O  O76  1  0.56185500  0.13072550  0.41602900  1
  O  O77  1  0.56060850  0.63756400  0.58523350  1
  O  O78  1  0.75000000  0.52859850  0.42312900  1
  O  O79  1  0.25000000  0.51932250  0.07709400  1
  O  O80  1  0.25000000  0.50483100  0.83863850  1
  O  O81  1  0.75000000  0.50788450  0.65735000  1
  O  O82  1  0.75000000  0.49516900  0.83863850  1
  O  O83  1  0.25000000  0.49211550  0.65735000  1
  O  O84  1  0.25000000  0.47140150  0.42312900  1
  O  O85  1  0.75000000  0.48067750  0.07709400  1
  O  O86  1  0.06185500  0.86927450  0.41602900  1
  O  O87  1  0.43814500  0.86927450  0.41602900  1
  O  O88  1  0.06060850  0.36243600  0.58523350  1
  O  O89  1  0.43939150  0.36243600  0.58523350  1
  O  O90  1  0.25000000  0.32655250  0.73190300  1
  O  O91  1  0.75000000  0.32716850  0.76985200  1
  O  O92  1  0.75000000  0.31435900  0.49297950  1
  O  O93  1  0.75000000  0.80227450  0.50767100  1
  O  O94  1  0.93552600  0.17065650  0.62009000  1
  O  O95  1  0.56447400  0.17065650  0.62009000  1
  O  O96  1  0.93638750  0.68033600  0.38215150  1
  O  O97  1  0.56361250  0.68033600  0.38215150  1
  O  O98  1  0.75000000  0.59829150  0.26040200  1
  O  O99  1  0.25000000  0.58864200  0.24265850  1
  O  O100  1  0.75000000  0.90170850  0.76040200  1
  O  O101  1  0.25000000  0.91135800  0.74265850  1
  O  O102  1  0.56361250  0.81966400  0.88215150  1
  O  O103  1  0.93638750  0.81966400  0.88215150  1
  O  O104  1  0.56447400  0.32934350  0.12009000  1
  O  O105  1  0.93552600  0.32934350  0.12009000  1
  O  O106  1  0.75000000  0.69772550  0.00767100  1
  O  O107  1  0.75000000  0.18564100  0.99297950  1
  O  O108  1  0.75000000  0.17283150  0.26985200  1
  O  O109  1  0.25000000  0.17344750  0.23190300  1
  O  O110  1  0.43939150  0.13756400  0.08523350  1
  O  O111  1  0.43814500  0.63072550  0.91602900  1
  O  O112  1  0.06185500  0.63072550  0.91602900  1
  O  O113  1  0.06060850  0.13756400  0.08523350  1
  O  O114  1  0.25000000  0.02859850  0.92312900  1
  O  O115  1  0.75000000  0.01932250  0.57709400  1
  O  O116  1  0.75000000  0.00483100  0.33863850  1
  O  O117  1  0.25000000  0.00788450  0.15735000  1
  O  O118  1  0.25000000  0.99516900  0.33863850  1
  O  O119  1  0.75000000  0.99211550  0.15735000  1
  O  O120  1  0.75000000  0.97140150  0.92312900  1
  O  O121  1  0.25000000  0.98067750  0.57709400  1
  O  O122  1  0.56185500  0.36927450  0.91602900  1
  O  O123  1  0.93814500  0.36927450  0.91602900  1
  O  O124  1  0.56060850  0.86243600  0.08523350  1
  O  O125  1  0.93939150  0.86243600  0.08523350  1
  O  O126  1  0.75000000  0.82655250  0.23190300  1
  O  O127  1  0.25000000  0.82716850  0.26985200  1
  O  O128  1  0.25000000  0.81435900  0.99297950  1
  O  O129  1  0.25000000  0.30227450  0.00767100  1
  O  O130  1  0.43552600  0.67065650  0.12009000  1
  O  O131  1  0.06447400  0.67065650  0.12009000  1
  O  O132  1  0.43638750  0.18033600  0.88215150  1
  O  O133  1  0.06361250  0.18033600  0.88215150  1
  O  O134  1  0.25000000  0.09829150  0.76040200  1
  O  O135  1  0.75000000  0.08864200  0.74265850  1
