# generated using pymatgen
data_K2MnS2
_symmetry_space_group_name_H-M   'P 1'
_cell_length_a   6.30391400
_cell_length_b   6.93363200
_cell_length_c   12.72084200
_cell_angle_alpha   90.00000000
_cell_angle_beta   90.00000000
_cell_angle_gamma   90.00000000
_symmetry_Int_Tables_number   1
_chemical_formula_structural   K2MnS2
_chemical_formula_sum   'K8 Mn4 S8'
_cell_volume   556.01553530
_cell_formula_units_Z   4
loop_
 _symmetry_equiv_pos_site_id
 _symmetry_equiv_pos_as_xyz
  1  'x, y, z'
loop_
 _atom_site_type_symbol
 _atom_site_label
 _atom_site_symmetry_multiplicity
 _atom_site_fract_x
 _atom_site_fract_y
 _atom_site_fract_z
 _atom_site_occupancy
  K  K0  1  0.50000000  0.34101700  0.14715600  1
  K  K1  1  0.50000000  0.84101700  0.35284400  1
  K  K2  1  0.00000000  0.15898300  0.35284400  1
  K  K3  1  0.00000000  0.65898300  0.14715600  1
  K  K4  1  0.00000000  0.84101700  0.64715600  1
  K  K5  1  0.00000000  0.34101700  0.85284400  1
  K  K6  1  0.50000000  0.65898300  0.85284400  1
  K  K7  1  0.50000000  0.15898300  0.64715600  1
  Mn  Mn8  1  0.75000000  0.00000000  0.00000000  1
  Mn  Mn9  1  0.25000000  0.00000000  0.00000000  1
  Mn  Mn10  1  0.25000000  0.50000000  0.50000000  1
  Mn  Mn11  1  0.75000000  0.50000000  0.50000000  1
  S  S12  1  0.50000000  0.80724450  0.10217750  1
  S  S13  1  0.50000000  0.30724450  0.39782250  1
  S  S14  1  0.00000000  0.69275550  0.39782250  1
  S  S15  1  0.00000000  0.19275550  0.10217750  1
  S  S16  1  0.00000000  0.30724450  0.60217750  1
  S  S17  1  0.00000000  0.80724450  0.89782250  1
  S  S18  1  0.50000000  0.19275550  0.89782250  1
  S  S19  1  0.50000000  0.69275550  0.60217750  1
