# generated using pymatgen
data_NbBiO4
_symmetry_space_group_name_H-M   'P 1'
_cell_length_a   5.98961200
_cell_length_b   5.88203400
_cell_length_c   6.05526211
_cell_angle_alpha   90.00000000
_cell_angle_beta   112.94397505
_cell_angle_gamma   90.00000000
_symmetry_Int_Tables_number   1
_chemical_formula_structural   NbBiO4
_chemical_formula_sum   'Nb2 Bi2 O8'
_cell_volume   196.45598488
_cell_formula_units_Z   2
loop_
 _symmetry_equiv_pos_site_id
 _symmetry_equiv_pos_as_xyz
  1  'x, y, z'
loop_
 _atom_site_type_symbol
 _atom_site_label
 _atom_site_symmetry_multiplicity
 _atom_site_fract_x
 _atom_site_fract_y
 _atom_site_fract_z
 _atom_site_occupancy
  Nb  Nb0  1  0.00000000  0.94675500  0.00000000  1
  Nb  Nb1  1  0.50000000  0.44675500  0.00000000  1
  Bi  Bi2  1  0.00000000  0.29187600  0.50000000  1
  Bi  Bi3  1  0.50000000  0.79187600  0.50000000  1
  O  O4  1  0.75819500  0.24489200  0.04938500  1
  O  O5  1  0.35037800  0.51489800  0.65175000  1
  O  O6  1  0.64962200  0.51489800  0.34825000  1
  O  O7  1  0.24180500  0.24489200  0.95061500  1
  O  O8  1  0.25819500  0.74489200  0.04938500  1
  O  O9  1  0.85037800  0.01489800  0.65175000  1
  O  O10  1  0.14962200  0.01489800  0.34825000  1
  O  O11  1  0.74180500  0.74489200  0.95061500  1
