# generated using pymatgen
data_Li6Mn5Fe(BO3)6
_symmetry_space_group_name_H-M   'P 1'
_cell_length_a   16.52414400
_cell_length_b   6.36828800
_cell_length_c   8.27575428
_cell_angle_alpha   90.00000000
_cell_angle_beta   119.94551618
_cell_angle_gamma   90.00000000
_symmetry_Int_Tables_number   1
_chemical_formula_structural   Li6Mn5Fe(BO3)6
_chemical_formula_sum   'Li12 Mn10 Fe2 B12 O36'
_cell_volume   754.60218480
_cell_formula_units_Z   2
loop_
 _symmetry_equiv_pos_site_id
 _symmetry_equiv_pos_as_xyz
  1  'x, y, z'
loop_
 _atom_site_type_symbol
 _atom_site_label
 _atom_site_symmetry_multiplicity
 _atom_site_fract_x
 _atom_site_fract_y
 _atom_site_fract_z
 _atom_site_occupancy
  Li  Li0  1  0.00876700  0.25038900  0.71627700  1
  Li  Li1  1  0.00876700  0.74961100  0.71627700  1
  Li  Li2  1  0.34946550  0.75062750  0.98324400  1
  Li  Li3  1  0.34946550  0.24937250  0.98324400  1
  Li  Li4  1  0.14175050  0.25056750  0.30163000  1
  Li  Li5  1  0.14175050  0.74943250  0.30163000  1
  Li  Li6  1  0.50876700  0.75038900  0.71627700  1
  Li  Li7  1  0.50876700  0.24961100  0.71627700  1
  Li  Li8  1  0.84946550  0.25062750  0.98324400  1
  Li  Li9  1  0.84946550  0.74937250  0.98324400  1
  Li  Li10  1  0.64175050  0.75056750  0.30163000  1
  Li  Li11  1  0.64175050  0.24943250  0.30163000  1
  Mn  Mn12  1  0.32054800  0.50000000  0.62891000  1
  Mn  Mn13  1  0.32006300  0.00000000  0.62841400  1
  Mn  Mn14  1  0.49395100  0.50000000  0.35880400  1
  Mn  Mn15  1  0.18572100  0.00000000  0.01197800  1
  Mn  Mn16  1  0.18581900  0.50000000  0.01176600  1
  Mn  Mn17  1  0.82054800  0.00000000  0.62891000  1
  Mn  Mn18  1  0.82006300  0.50000000  0.62841400  1
  Mn  Mn19  1  0.99395100  0.00000000  0.35880400  1
  Mn  Mn20  1  0.68572100  0.50000000  0.01197800  1
  Mn  Mn21  1  0.68581900  0.00000000  0.01176600  1
  Fe  Fe22  1  0.49585300  0.00000000  0.36000400  1
  Fe  Fe23  1  0.99585300  0.50000000  0.36000400  1
  B  B24  1  0.16626250  0.74797750  0.66571200  1
  B  B25  1  0.16626250  0.25202250  0.66571200  1
  B  B26  1  0.33402200  0.75113800  0.33352600  1
  B  B27  1  0.33402200  0.24886200  0.33352600  1
  B  B28  1  0.00001800  0.00000000  0.99980700  1
  B  B29  1  0.49905600  0.00000000  0.00047400  1
  B  B30  1  0.66626250  0.24797750  0.66571200  1
  B  B31  1  0.66626250  0.75202250  0.66571200  1
  B  B32  1  0.83402200  0.25113800  0.33352600  1
  B  B33  1  0.83402200  0.74886200  0.33352600  1
  B  B34  1  0.50001800  0.50000000  0.99980700  1
  B  B35  1  0.99905600  0.50000000  0.00047400  1
  O  O36  1  0.03948700  0.50000000  0.88771100  1
  O  O37  1  0.03904500  0.00000000  0.88423200  1
  O  O38  1  0.20913200  0.25023200  0.85904300  1
  O  O39  1  0.20913200  0.74976800  0.85904300  1
  O  O40  1  0.40319300  0.50000000  0.92204600  1
  O  O41  1  0.40237400  0.00000000  0.92069400  1
  O  O42  1  0.06932300  0.74582700  0.55774900  1
  O  O43  1  0.06932300  0.25417300  0.55774900  1
  O  O44  1  0.22023000  0.25014300  0.58015800  1
  O  O45  1  0.22023000  0.74985700  0.58015800  1
  O  O46  1  0.37479250  0.75038150  0.52706100  1
  O  O47  1  0.37479250  0.24961850  0.52706100  1
  O  O48  1  0.05537500  0.50000000  0.19487900  1
  O  O49  1  0.05789400  0.00000000  0.19318600  1
  O  O50  1  0.23696500  0.74950700  0.22212200  1
  O  O51  1  0.23696500  0.25049300  0.22212200  1
  O  O52  1  0.39008350  0.75256750  0.25202500  1
  O  O53  1  0.39008350  0.24743250  0.25202500  1
  O  O54  1  0.53948700  0.00000000  0.88771100  1
  O  O55  1  0.53904500  0.50000000  0.88423200  1
  O  O56  1  0.70913200  0.75023200  0.85904300  1
  O  O57  1  0.70913200  0.24976800  0.85904300  1
  O  O58  1  0.90319300  0.00000000  0.92204600  1
  O  O59  1  0.90237400  0.50000000  0.92069400  1
  O  O60  1  0.56932300  0.24582700  0.55774900  1
  O  O61  1  0.56932300  0.75417300  0.55774900  1
  O  O62  1  0.72023000  0.75014300  0.58015800  1
  O  O63  1  0.72023000  0.24985700  0.58015800  1
  O  O64  1  0.87479250  0.25038150  0.52706100  1
  O  O65  1  0.87479250  0.74961850  0.52706100  1
  O  O66  1  0.55537500  0.00000000  0.19487900  1
  O  O67  1  0.55789400  0.50000000  0.19318600  1
  O  O68  1  0.73696500  0.24950700  0.22212200  1
  O  O69  1  0.73696500  0.75049300  0.22212200  1
  O  O70  1  0.89008350  0.25256750  0.25202500  1
  O  O71  1  0.89008350  0.74743250  0.25202500  1
