# generated using pymatgen
data_LiCuSbO4
_symmetry_space_group_name_H-M   'P 1'
_cell_length_a   5.85857200
_cell_length_b   6.10354400
_cell_length_c   9.15131200
_cell_angle_alpha   90.00000000
_cell_angle_beta   90.00000000
_cell_angle_gamma   90.00000000
_symmetry_Int_Tables_number   1
_chemical_formula_structural   LiCuSbO4
_chemical_formula_sum   'Li4 Cu4 Sb4 O16'
_cell_volume   327.23309017
_cell_formula_units_Z   4
loop_
 _symmetry_equiv_pos_site_id
 _symmetry_equiv_pos_as_xyz
  1  'x, y, z'
loop_
 _atom_site_type_symbol
 _atom_site_label
 _atom_site_symmetry_multiplicity
 _atom_site_fract_x
 _atom_site_fract_y
 _atom_site_fract_z
 _atom_site_occupancy
  Li  Li0  1  0.00000000  0.25000000  0.64983550  1
  Li  Li1  1  0.50000000  0.25000000  0.85016450  1
  Li  Li2  1  0.50000000  0.75000000  0.14983550  1
  Li  Li3  1  0.00000000  0.75000000  0.35016450  1
  Cu  Cu4  1  0.75000000  0.75000000  0.75000000  1
  Cu  Cu5  1  0.25000000  0.75000000  0.75000000  1
  Cu  Cu6  1  0.25000000  0.25000000  0.25000000  1
  Cu  Cu7  1  0.75000000  0.25000000  0.25000000  1
  Sb  Sb8  1  0.00000000  0.00000000  0.00000000  1
  Sb  Sb9  1  0.00000000  0.50000000  0.00000000  1
  Sb  Sb10  1  0.50000000  0.50000000  0.50000000  1
  Sb  Sb11  1  0.50000000  0.00000000  0.50000000  1
  O  O12  1  0.00000000  0.97046300  0.78159650  1
  O  O13  1  0.27050050  0.25000000  0.51415300  1
  O  O14  1  0.72949950  0.25000000  0.51415300  1
  O  O15  1  0.00000000  0.52953700  0.78159650  1
  O  O16  1  0.50000000  0.97046300  0.71840350  1
  O  O17  1  0.22949950  0.25000000  0.98584700  1
  O  O18  1  0.77050050  0.25000000  0.98584700  1
  O  O19  1  0.50000000  0.52953700  0.71840350  1
  O  O20  1  0.50000000  0.47046300  0.28159650  1
  O  O21  1  0.77050050  0.75000000  0.01415300  1
  O  O22  1  0.22949950  0.75000000  0.01415300  1
  O  O23  1  0.50000000  0.02953700  0.28159650  1
  O  O24  1  0.00000000  0.47046300  0.21840350  1
  O  O25  1  0.72949950  0.75000000  0.48584700  1
  O  O26  1  0.27050050  0.75000000  0.48584700  1
  O  O27  1  0.00000000  0.02953700  0.21840350  1
