# generated using pymatgen
data_RbAgO
_symmetry_space_group_name_H-M   'P 1'
_cell_length_a   10.24093200
_cell_length_b   10.24093200
_cell_length_c   5.90333600
_cell_angle_alpha   90.00000000
_cell_angle_beta   90.00000000
_cell_angle_gamma   90.00000000
_symmetry_Int_Tables_number   1
_chemical_formula_structural   RbAgO
_chemical_formula_sum   'Rb8 Ag8 O8'
_cell_volume   619.12232918
_cell_formula_units_Z   8
loop_
 _symmetry_equiv_pos_site_id
 _symmetry_equiv_pos_as_xyz
  1  'x, y, z'
loop_
 _atom_site_type_symbol
 _atom_site_label
 _atom_site_symmetry_multiplicity
 _atom_site_fract_x
 _atom_site_fract_y
 _atom_site_fract_z
 _atom_site_occupancy
  Rb  Rb0  1  0.31491600  0.00000000  0.50000000  1
  Rb  Rb1  1  0.50000000  0.18508400  0.00000000  1
  Rb  Rb2  1  0.50000000  0.81491600  0.00000000  1
  Rb  Rb3  1  0.68508400  0.00000000  0.50000000  1
  Rb  Rb4  1  0.81491600  0.50000000  0.00000000  1
  Rb  Rb5  1  0.00000000  0.68508400  0.50000000  1
  Rb  Rb6  1  0.00000000  0.31491600  0.50000000  1
  Rb  Rb7  1  0.18508400  0.50000000  0.00000000  1
  Ag  Ag8  1  0.85573400  0.85573400  0.00000000  1
  Ag  Ag9  1  0.85573400  0.14426600  0.00000000  1
  Ag  Ag10  1  0.64426600  0.35573400  0.50000000  1
  Ag  Ag11  1  0.64426600  0.64426600  0.50000000  1
  Ag  Ag12  1  0.35573400  0.35573400  0.50000000  1
  Ag  Ag13  1  0.35573400  0.64426600  0.50000000  1
  Ag  Ag14  1  0.14426600  0.85573400  0.00000000  1
  Ag  Ag15  1  0.14426600  0.14426600  0.00000000  1
  O  O16  1  0.28815500  0.00000000  0.00000000  1
  O  O17  1  0.50000000  0.21184500  0.50000000  1
  O  O18  1  0.50000000  0.78815500  0.50000000  1
  O  O19  1  0.71184500  0.00000000  0.00000000  1
  O  O20  1  0.78815500  0.50000000  0.50000000  1
  O  O21  1  0.00000000  0.71184500  0.00000000  1
  O  O22  1  0.00000000  0.28815500  0.00000000  1
  O  O23  1  0.21184500  0.50000000  0.50000000  1
