# generated using pymatgen
data_Sr4P2O
_symmetry_space_group_name_H-M   'P 1'
_cell_length_a   4.83503800
_cell_length_b   4.83503800
_cell_length_c   16.04783800
_cell_angle_alpha   90.00000000
_cell_angle_beta   90.00000000
_cell_angle_gamma   90.00000000
_symmetry_Int_Tables_number   1
_chemical_formula_structural   Sr4P2O
_chemical_formula_sum   'Sr8 P4 O2'
_cell_volume   375.15981665
_cell_formula_units_Z   2
loop_
 _symmetry_equiv_pos_site_id
 _symmetry_equiv_pos_as_xyz
  1  'x, y, z'
loop_
 _atom_site_type_symbol
 _atom_site_label
 _atom_site_symmetry_multiplicity
 _atom_site_fract_x
 _atom_site_fract_y
 _atom_site_fract_z
 _atom_site_occupancy
  Sr  Sr0  1  0.50000000  0.50000000  0.17592900  1
  Sr  Sr1  1  0.00000000  0.00000000  0.32407100  1
  Sr  Sr2  1  0.00000000  0.50000000  0.00000000  1
  Sr  Sr3  1  0.50000000  0.00000000  0.00000000  1
  Sr  Sr4  1  0.00000000  0.00000000  0.67592900  1
  Sr  Sr5  1  0.50000000  0.50000000  0.82407100  1
  Sr  Sr6  1  0.50000000  0.00000000  0.50000000  1
  Sr  Sr7  1  0.00000000  0.50000000  0.50000000  1
  P  P8  1  0.50000000  0.50000000  0.36484300  1
  P  P9  1  0.00000000  0.00000000  0.13515700  1
  P  P10  1  0.00000000  0.00000000  0.86484300  1
  P  P11  1  0.50000000  0.50000000  0.63515700  1
  O  O12  1  0.50000000  0.50000000  0.00000000  1
  O  O13  1  0.00000000  0.00000000  0.50000000  1
