# generated using pymatgen
data_ThNb4O12
_symmetry_space_group_name_H-M   'P 1'
_cell_length_a   5.60292000
_cell_length_b   16.01335600
_cell_length_c   16.90758800
_cell_angle_alpha   90.00000000
_cell_angle_beta   90.00000000
_cell_angle_gamma   90.00000000
_symmetry_Int_Tables_number   1
_chemical_formula_structural   ThNb4O12
_chemical_formula_sum   'Th6 Nb24 O72'
_cell_volume   1516.97504607
_cell_formula_units_Z   6
loop_
 _symmetry_equiv_pos_site_id
 _symmetry_equiv_pos_as_xyz
  1  'x, y, z'
loop_
 _atom_site_type_symbol
 _atom_site_label
 _atom_site_symmetry_multiplicity
 _atom_site_fract_x
 _atom_site_fract_y
 _atom_site_fract_z
 _atom_site_occupancy
  Th  Th0  1  0.00000000  0.00000000  0.00000000  1
  Th  Th1  1  0.50000000  0.00000000  0.82780200  1
  Th  Th2  1  0.50000000  0.00000000  0.17219800  1
  Th  Th3  1  0.50000000  0.50000000  0.50000000  1
  Th  Th4  1  0.00000000  0.50000000  0.32780200  1
  Th  Th5  1  0.00000000  0.50000000  0.67219800  1
  Nb  Nb6  1  0.00000000  0.13375500  0.82662900  1
  Nb  Nb7  1  0.00000000  0.86624500  0.82662900  1
  Nb  Nb8  1  0.50000000  0.87637350  0.65726250  1
  Nb  Nb9  1  0.50000000  0.12362650  0.65726250  1
  Nb  Nb10  1  0.00000000  0.11973000  0.50000000  1
  Nb  Nb11  1  0.00000000  0.63575800  0.50000000  1
  Nb  Nb12  1  0.00000000  0.88027000  0.50000000  1
  Nb  Nb13  1  0.00000000  0.36424200  0.50000000  1
  Nb  Nb14  1  0.50000000  0.87637350  0.34273750  1
  Nb  Nb15  1  0.50000000  0.12362650  0.34273750  1
  Nb  Nb16  1  0.00000000  0.13375500  0.17337100  1
  Nb  Nb17  1  0.00000000  0.86624500  0.17337100  1
  Nb  Nb18  1  0.50000000  0.63375500  0.32662900  1
  Nb  Nb19  1  0.50000000  0.36624500  0.32662900  1
  Nb  Nb20  1  0.00000000  0.37637350  0.15726250  1
  Nb  Nb21  1  0.00000000  0.62362650  0.15726250  1
  Nb  Nb22  1  0.50000000  0.61973000  0.00000000  1
  Nb  Nb23  1  0.50000000  0.13575800  0.00000000  1
  Nb  Nb24  1  0.50000000  0.38027000  0.00000000  1
  Nb  Nb25  1  0.50000000  0.86424200  0.00000000  1
  Nb  Nb26  1  0.00000000  0.37637350  0.84273750  1
  Nb  Nb27  1  0.00000000  0.62362650  0.84273750  1
  Nb  Nb28  1  0.50000000  0.63375500  0.67337100  1
  Nb  Nb29  1  0.50000000  0.36624500  0.67337100  1
  O  O30  1  0.50000000  0.00000000  0.00000000  1
  O  O31  1  0.00000000  0.00000000  0.84587300  1
  O  O32  1  0.73211600  0.88723500  0.76053100  1
  O  O33  1  0.26788400  0.11276500  0.76053100  1
  O  O34  1  0.26788400  0.88723500  0.76053100  1
  O  O35  1  0.73211600  0.11276500  0.76053100  1
  O  O36  1  0.50000000  0.00000000  0.68207000  1
  O  O37  1  0.50000000  0.75233800  0.67031500  1
  O  O38  1  0.50000000  0.24766200  0.67031500  1
  O  O39  1  0.74765100  0.60744900  0.58023400  1
  O  O40  1  0.74765100  0.39255100  0.58023400  1
  O  O41  1  0.75220850  0.12193050  0.58466450  1
  O  O42  1  0.75220850  0.87806950  0.58466450  1
  O  O43  1  0.25234900  0.60744900  0.58023400  1
  O  O44  1  0.25234900  0.39255100  0.58023400  1
  O  O45  1  0.24779150  0.87806950  0.58466450  1
  O  O46  1  0.24779150  0.12193050  0.58466450  1
  O  O47  1  0.00000000  0.00000000  0.50000000  1
  O  O48  1  0.00000000  0.75170000  0.50000000  1
  O  O49  1  0.00000000  0.24830000  0.50000000  1
  O  O50  1  0.75220850  0.87806950  0.41533550  1
  O  O51  1  0.74765100  0.60744900  0.41976600  1
  O  O52  1  0.24779150  0.12193050  0.41533550  1
  O  O53  1  0.24779150  0.87806950  0.41533550  1
  O  O54  1  0.75220850  0.12193050  0.41533550  1
  O  O55  1  0.25234900  0.60744900  0.41976600  1
  O  O56  1  0.74765100  0.39255100  0.41976600  1
  O  O57  1  0.25234900  0.39255100  0.41976600  1
  O  O58  1  0.50000000  0.24766200  0.32968500  1
  O  O59  1  0.50000000  0.75233800  0.32968500  1
  O  O60  1  0.50000000  0.00000000  0.31793000  1
  O  O61  1  0.26788400  0.88723500  0.23946900  1
  O  O62  1  0.26788400  0.11276500  0.23946900  1
  O  O63  1  0.73211600  0.11276500  0.23946900  1
  O  O64  1  0.73211600  0.88723500  0.23946900  1
  O  O65  1  0.00000000  0.00000000  0.15412700  1
  O  O66  1  0.00000000  0.50000000  0.50000000  1
  O  O67  1  0.50000000  0.50000000  0.34587300  1
  O  O68  1  0.23211600  0.38723500  0.26053100  1
  O  O69  1  0.76788400  0.61276500  0.26053100  1
  O  O70  1  0.76788400  0.38723500  0.26053100  1
  O  O71  1  0.23211600  0.61276500  0.26053100  1
  O  O72  1  0.00000000  0.50000000  0.18207000  1
  O  O73  1  0.00000000  0.25233800  0.17031500  1
  O  O74  1  0.00000000  0.74766200  0.17031500  1
  O  O75  1  0.24765100  0.10744900  0.08023400  1
  O  O76  1  0.24765100  0.89255100  0.08023400  1
  O  O77  1  0.25220850  0.62193050  0.08466450  1
  O  O78  1  0.25220850  0.37806950  0.08466450  1
  O  O79  1  0.75234900  0.10744900  0.08023400  1
  O  O80  1  0.75234900  0.89255100  0.08023400  1
  O  O81  1  0.74779150  0.37806950  0.08466450  1
  O  O82  1  0.74779150  0.62193050  0.08466450  1
  O  O83  1  0.50000000  0.50000000  0.00000000  1
  O  O84  1  0.50000000  0.25170000  0.00000000  1
  O  O85  1  0.50000000  0.74830000  0.00000000  1
  O  O86  1  0.25220850  0.37806950  0.91533550  1
  O  O87  1  0.24765100  0.10744900  0.91976600  1
  O  O88  1  0.74779150  0.62193050  0.91533550  1
  O  O89  1  0.74779150  0.37806950  0.91533550  1
  O  O90  1  0.25220850  0.62193050  0.91533550  1
  O  O91  1  0.75234900  0.10744900  0.91976600  1
  O  O92  1  0.24765100  0.89255100  0.91976600  1
  O  O93  1  0.75234900  0.89255100  0.91976600  1
  O  O94  1  0.00000000  0.74766200  0.82968500  1
  O  O95  1  0.00000000  0.25233800  0.82968500  1
  O  O96  1  0.00000000  0.50000000  0.81793000  1
  O  O97  1  0.76788400  0.38723500  0.73946900  1
  O  O98  1  0.76788400  0.61276500  0.73946900  1
  O  O99  1  0.23211600  0.61276500  0.73946900  1
  O  O100  1  0.23211600  0.38723500  0.73946900  1
  O  O101  1  0.50000000  0.50000000  0.65412700  1
