# generated using pymatgen
data_Mn3OF8
_symmetry_space_group_name_H-M   'P 1'
_cell_length_a   8.92145376
_cell_length_b   5.17815571
_cell_length_c   13.42713534
_cell_angle_alpha   90.00000000
_cell_angle_beta   91.92412579
_cell_angle_gamma   90.00000000
_symmetry_Int_Tables_number   1
_chemical_formula_structural   Mn3OF8
_chemical_formula_sum   'Mn12 O4 F32'
_cell_volume   619.93929056
_cell_formula_units_Z   4
loop_
 _symmetry_equiv_pos_site_id
 _symmetry_equiv_pos_as_xyz
  1  'x, y, z'
loop_
 _atom_site_type_symbol
 _atom_site_label
 _atom_site_symmetry_multiplicity
 _atom_site_fract_x
 _atom_site_fract_y
 _atom_site_fract_z
 _atom_site_occupancy
  Mn  Mn0  1  0.50264600  0.53059500  0.00563800  1
  Mn  Mn1  1  0.50264600  0.46940500  0.50563800  1
  Mn  Mn2  1  0.66190000  0.01936200  0.66121800  1
  Mn  Mn3  1  0.66190000  0.98063800  0.16121800  1
  Mn  Mn4  1  0.33377900  0.02324700  0.83333300  1
  Mn  Mn5  1  0.33377900  0.97675300  0.33333300  1
  Mn  Mn6  1  0.00264600  0.03059500  0.00563800  1
  Mn  Mn7  1  0.00264600  0.96940500  0.50563800  1
  Mn  Mn8  1  0.16190000  0.51936200  0.66121800  1
  Mn  Mn9  1  0.16190000  0.48063800  0.16121800  1
  Mn  Mn10  1  0.83377900  0.52324700  0.83333300  1
  Mn  Mn11  1  0.83377900  0.47675300  0.33333300  1
  O  O12  1  0.51823600  0.19096800  0.58330200  1
  O  O13  1  0.51823600  0.80903200  0.08330200  1
  O  O14  1  0.01823600  0.69096800  0.58330200  1
  O  O15  1  0.01823600  0.30903200  0.08330200  1
  F  F16  1  0.50852100  0.09138900  0.24814200  1
  F  F17  1  0.63084150  0.31913350  0.08107400  1
  F  F18  1  0.20237100  0.83458600  0.75257900  1
  F  F19  1  0.63084150  0.68086650  0.58107400  1
  F  F20  1  0.80131450  0.17741850  0.25032800  1
  F  F21  1  0.83376750  0.10172250  0.57853400  1
  F  F22  1  0.15911300  0.11676800  0.92423900  1
  F  F23  1  0.20237100  0.16541400  0.25257900  1
  F  F24  1  0.80131450  0.82258150  0.75032800  1
  F  F25  1  0.83376750  0.89827750  0.07853400  1
  F  F26  1  0.15911300  0.88323200  0.42423900  1
  F  F27  1  0.36505850  0.29314150  0.41579300  1
  F  F28  1  0.46580850  0.21886650  0.91592200  1
  F  F29  1  0.36505850  0.70685850  0.91579300  1
  F  F30  1  0.50852100  0.90861100  0.74814200  1
  F  F31  1  0.46580850  0.78113350  0.41592200  1
  F  F32  1  0.00852100  0.59138900  0.24814200  1
  F  F33  1  0.13084150  0.81913350  0.08107400  1
  F  F34  1  0.70237100  0.33458600  0.75257900  1
  F  F35  1  0.13084150  0.18086650  0.58107400  1
  F  F36  1  0.30131450  0.67741850  0.25032800  1
  F  F37  1  0.33376750  0.60172250  0.57853400  1
  F  F38  1  0.65911300  0.61676800  0.92423900  1
  F  F39  1  0.70237100  0.66541400  0.25257900  1
  F  F40  1  0.30131450  0.32258150  0.75032800  1
  F  F41  1  0.33376750  0.39827750  0.07853400  1
  F  F42  1  0.65911300  0.38323200  0.42423900  1
  F  F43  1  0.86505850  0.79314150  0.41579300  1
  F  F44  1  0.96580850  0.71886650  0.91592200  1
  F  F45  1  0.86505850  0.20685850  0.91579300  1
  F  F46  1  0.00852100  0.40861100  0.74814200  1
  F  F47  1  0.96580850  0.28113350  0.41592200  1
