# generated using pymatgen
data_NaNdO2
_symmetry_space_group_name_H-M   'P 1'
_cell_length_a   4.76735200
_cell_length_b   4.76735200
_cell_length_c   11.10841600
_cell_angle_alpha   90.00000000
_cell_angle_beta   90.00000000
_cell_angle_gamma   90.00000000
_symmetry_Int_Tables_number   1
_chemical_formula_structural   NaNdO2
_chemical_formula_sum   'Na4 Nd4 O8'
_cell_volume   252.46813638
_cell_formula_units_Z   4
loop_
 _symmetry_equiv_pos_site_id
 _symmetry_equiv_pos_as_xyz
  1  'x, y, z'
loop_
 _atom_site_type_symbol
 _atom_site_label
 _atom_site_symmetry_multiplicity
 _atom_site_fract_x
 _atom_site_fract_y
 _atom_site_fract_z
 _atom_site_occupancy
  Na  Na0  1  0.00000000  0.50000000  0.25000000  1
  Na  Na1  1  0.00000000  0.00000000  0.00000000  1
  Na  Na2  1  0.50000000  0.00000000  0.75000000  1
  Na  Na3  1  0.50000000  0.50000000  0.50000000  1
  Nd  Nd4  1  0.50000000  0.50000000  0.00000000  1
  Nd  Nd5  1  0.50000000  0.00000000  0.25000000  1
  Nd  Nd6  1  0.00000000  0.00000000  0.50000000  1
  Nd  Nd7  1  0.00000000  0.50000000  0.75000000  1
  O  O8  1  0.00000000  0.00000000  0.28216900  1
  O  O9  1  0.50000000  0.00000000  0.03216900  1
  O  O10  1  0.50000000  0.50000000  0.21783100  1
  O  O11  1  0.50000000  0.00000000  0.46783100  1
  O  O12  1  0.50000000  0.50000000  0.78216900  1
  O  O13  1  0.00000000  0.50000000  0.53216900  1
  O  O14  1  0.00000000  0.00000000  0.71783100  1
  O  O15  1  0.00000000  0.50000000  0.96783100  1
