# generated using pymatgen
data_Cs2VAgS4
_symmetry_space_group_name_H-M   'P 1'
_cell_length_a   5.87592800
_cell_length_b   14.39996800
_cell_length_c   24.84353200
_cell_angle_alpha   90.00000000
_cell_angle_beta   90.00000000
_cell_angle_gamma   90.00000000
_symmetry_Int_Tables_number   1
_chemical_formula_structural   Cs2VAgS4
_chemical_formula_sum   'Cs16 V8 Ag8 S32'
_cell_volume   2102.09012497
_cell_formula_units_Z   8
loop_
 _symmetry_equiv_pos_site_id
 _symmetry_equiv_pos_as_xyz
  1  'x, y, z'
loop_
 _atom_site_type_symbol
 _atom_site_label
 _atom_site_symmetry_multiplicity
 _atom_site_fract_x
 _atom_site_fract_y
 _atom_site_fract_z
 _atom_site_occupancy
  Cs  Cs0  1  0.00000000  0.00000000  0.67809600  1
  Cs  Cs1  1  0.50000000  0.00000000  0.82190400  1
  Cs  Cs2  1  0.75000000  0.75000000  0.92809600  1
  Cs  Cs3  1  0.75000000  0.75000000  0.57190400  1
  Cs  Cs4  1  0.00000000  0.50000000  0.17809600  1
  Cs  Cs5  1  0.50000000  0.50000000  0.32190400  1
  Cs  Cs6  1  0.75000000  0.25000000  0.42809600  1
  Cs  Cs7  1  0.75000000  0.25000000  0.07190400  1
  Cs  Cs8  1  0.50000000  0.00000000  0.17809600  1
  Cs  Cs9  1  0.00000000  0.00000000  0.32190400  1
  Cs  Cs10  1  0.25000000  0.75000000  0.42809600  1
  Cs  Cs11  1  0.25000000  0.75000000  0.07190400  1
  Cs  Cs12  1  0.50000000  0.50000000  0.67809600  1
  Cs  Cs13  1  0.00000000  0.50000000  0.82190400  1
  Cs  Cs14  1  0.25000000  0.25000000  0.92809600  1
  Cs  Cs15  1  0.25000000  0.25000000  0.57190400  1
  V  V16  1  0.75000000  0.75000000  0.75000000  1
  V  V17  1  0.50000000  0.00000000  0.00000000  1
  V  V18  1  0.75000000  0.25000000  0.25000000  1
  V  V19  1  0.50000000  0.50000000  0.50000000  1
  V  V20  1  0.25000000  0.75000000  0.25000000  1
  V  V21  1  0.00000000  0.00000000  0.50000000  1
  V  V22  1  0.25000000  0.25000000  0.75000000  1
  V  V23  1  0.00000000  0.50000000  0.00000000  1
  Ag  Ag24  1  0.00000000  0.00000000  0.00000000  1
  Ag  Ag25  1  0.25000000  0.75000000  0.75000000  1
  Ag  Ag26  1  0.00000000  0.50000000  0.50000000  1
  Ag  Ag27  1  0.25000000  0.25000000  0.25000000  1
  Ag  Ag28  1  0.50000000  0.00000000  0.50000000  1
  Ag  Ag29  1  0.75000000  0.75000000  0.25000000  1
  Ag  Ag30  1  0.50000000  0.50000000  0.00000000  1
  Ag  Ag31  1  0.75000000  0.25000000  0.75000000  1
  S  S32  1  0.95279450  0.65935650  0.69819300  1
  S  S33  1  0.95279450  0.84064350  0.80180700  1
  S  S34  1  0.54720550  0.65935650  0.80180700  1
  S  S35  1  0.54720550  0.84064350  0.69819300  1
  S  S36  1  0.20279450  0.90935650  0.55180700  1
  S  S37  1  0.29720550  0.90935650  0.94819300  1
  S  S38  1  0.20279450  0.59064350  0.94819300  1
  S  S39  1  0.29720550  0.59064350  0.55180700  1
  S  S40  1  0.95279450  0.15935650  0.19819300  1
  S  S41  1  0.95279450  0.34064350  0.30180700  1
  S  S42  1  0.54720550  0.15935650  0.30180700  1
  S  S43  1  0.54720550  0.34064350  0.19819300  1
  S  S44  1  0.20279450  0.40935650  0.05180700  1
  S  S45  1  0.29720550  0.40935650  0.44819300  1
  S  S46  1  0.20279450  0.09064350  0.44819300  1
  S  S47  1  0.29720550  0.09064350  0.05180700  1
  S  S48  1  0.45279450  0.65935650  0.19819300  1
  S  S49  1  0.45279450  0.84064350  0.30180700  1
  S  S50  1  0.04720550  0.65935650  0.30180700  1
  S  S51  1  0.04720550  0.84064350  0.19819300  1
  S  S52  1  0.70279450  0.90935650  0.05180700  1
  S  S53  1  0.79720550  0.90935650  0.44819300  1
  S  S54  1  0.70279450  0.59064350  0.44819300  1
  S  S55  1  0.79720550  0.59064350  0.05180700  1
  S  S56  1  0.45279450  0.15935650  0.69819300  1
  S  S57  1  0.45279450  0.34064350  0.80180700  1
  S  S58  1  0.04720550  0.15935650  0.80180700  1
  S  S59  1  0.04720550  0.34064350  0.69819300  1
  S  S60  1  0.70279450  0.40935650  0.55180700  1
  S  S61  1  0.79720550  0.40935650  0.94819300  1
  S  S62  1  0.70279450  0.09064350  0.94819300  1
  S  S63  1  0.79720550  0.09064350  0.55180700  1
