# generated using pymatgen
data_Ca2ZnN2
_symmetry_space_group_name_H-M   'P 1'
_cell_length_a   3.60013400
_cell_length_b   3.60013400
_cell_length_c   12.62747000
_cell_angle_alpha   90.00000000
_cell_angle_beta   90.00000000
_cell_angle_gamma   90.00000000
_symmetry_Int_Tables_number   1
_chemical_formula_structural   Ca2ZnN2
_chemical_formula_sum   'Ca4 Zn2 N4'
_cell_volume   163.66419441
_cell_formula_units_Z   2
loop_
 _symmetry_equiv_pos_site_id
 _symmetry_equiv_pos_as_xyz
  1  'x, y, z'
loop_
 _atom_site_type_symbol
 _atom_site_label
 _atom_site_symmetry_multiplicity
 _atom_site_fract_x
 _atom_site_fract_y
 _atom_site_fract_z
 _atom_site_occupancy
  Ca  Ca0  1  0.50000000  0.50000000  0.16344900  1
  Ca  Ca1  1  0.00000000  0.00000000  0.33655100  1
  Ca  Ca2  1  0.00000000  0.00000000  0.66344900  1
  Ca  Ca3  1  0.50000000  0.50000000  0.83655100  1
  Zn  Zn4  1  0.00000000  0.00000000  0.00000000  1
  Zn  Zn5  1  0.50000000  0.50000000  0.50000000  1
  N  N6  1  0.50000000  0.50000000  0.35369900  1
  N  N7  1  0.00000000  0.00000000  0.14630100  1
  N  N8  1  0.00000000  0.00000000  0.85369900  1
  N  N9  1  0.50000000  0.50000000  0.64630100  1
