# generated using pymatgen
data_LaMgI5
_symmetry_space_group_name_H-M   'P 1'
_cell_length_a   12.13543000
_cell_length_b   11.02402000
_cell_length_c   12.09335191
_cell_angle_alpha   90.00000000
_cell_angle_beta   119.59110879
_cell_angle_gamma   90.00000000
_symmetry_Int_Tables_number   1
_chemical_formula_structural   LaMgI5
_chemical_formula_sum   'La4 Mg4 I20'
_cell_volume   1406.84802371
_cell_formula_units_Z   4
loop_
 _symmetry_equiv_pos_site_id
 _symmetry_equiv_pos_as_xyz
  1  'x, y, z'
loop_
 _atom_site_type_symbol
 _atom_site_label
 _atom_site_symmetry_multiplicity
 _atom_site_fract_x
 _atom_site_fract_y
 _atom_site_fract_z
 _atom_site_occupancy
  La  La0  1  0.75474900  0.74939900  0.49364700  1
  La  La1  1  0.75474900  0.25060100  0.99364700  1
  La  La2  1  0.25474900  0.24939900  0.49364700  1
  La  La3  1  0.25474900  0.75060100  0.99364700  1
  Mg  Mg4  1  0.50059100  0.14860700  0.24352700  1
  Mg  Mg5  1  0.00059100  0.35139300  0.74352700  1
  Mg  Mg6  1  0.00059100  0.64860700  0.24352700  1
  Mg  Mg7  1  0.50059100  0.85139300  0.74352700  1
  I  I8  1  0.89085600  0.81210900  0.33378600  1
  I  I9  1  0.31694750  0.03339650  0.03100100  1
  I  I10  1  0.89085600  0.18789100  0.83378600  1
  I  I11  1  0.50674100  0.67190500  0.24122400  1
  I  I12  1  0.67616400  0.02818000  0.45691500  1
  I  I13  1  0.81694750  0.46660350  0.53100100  1
  I  I14  1  0.00674100  0.82809500  0.74122400  1
  I  I15  1  0.61795050  0.30411750  0.15470200  1
  I  I16  1  0.17616400  0.47182000  0.95691500  1
  I  I17  1  0.61795050  0.69588250  0.65470200  1
  I  I18  1  0.39085600  0.31210900  0.33378600  1
  I  I19  1  0.81694750  0.53339650  0.03100100  1
  I  I20  1  0.39085600  0.68789100  0.83378600  1
  I  I21  1  0.00674100  0.17190500  0.24122400  1
  I  I22  1  0.17616400  0.52818000  0.45691500  1
  I  I23  1  0.31694750  0.96660350  0.53100100  1
  I  I24  1  0.50674100  0.32809500  0.74122400  1
  I  I25  1  0.11795050  0.80411750  0.15470200  1
  I  I26  1  0.67616400  0.97182000  0.95691500  1
  I  I27  1  0.11795050  0.19588250  0.65470200  1
