# generated using pymatgen
data_LiNb(TeO4)3
_symmetry_space_group_name_H-M   'P 1'
_cell_length_a   4.96850700
_cell_length_b   8.67605300
_cell_length_c   5.23559359
_cell_angle_alpha   90.00000000
_cell_angle_beta   90.35516300
_cell_angle_gamma   90.00000000
_symmetry_Int_Tables_number   1
_chemical_formula_structural   LiNb(TeO4)3
_chemical_formula_sum   'Li1 Nb1 Te3 O12'
_cell_volume   225.68655414
_cell_formula_units_Z   1
loop_
 _symmetry_equiv_pos_site_id
 _symmetry_equiv_pos_as_xyz
  1  'x, y, z'
loop_
 _atom_site_type_symbol
 _atom_site_label
 _atom_site_symmetry_multiplicity
 _atom_site_fract_x
 _atom_site_fract_y
 _atom_site_fract_z
 _atom_site_occupancy
  Li  Li0  1  0.00000000  0.27615500  0.00000000  1
  Nb  Nb1  1  0.00000000  0.89025000  0.00000000  1
  Te  Te2  1  0.50000000  0.58318700  0.00000000  1
  Te  Te3  1  0.00000000  0.08043800  0.50000000  1
  Te  Te4  1  0.50000000  0.39412700  0.50000000  1
  O  O5  1  0.74220600  0.73752900  0.12207700  1
  O  O6  1  0.71523800  0.41804500  0.18290700  1
  O  O7  1  0.80487500  0.08142400  0.18471200  1
  O  O8  1  0.29158100  0.55711000  0.31392800  1
  O  O9  1  0.21178900  0.92713100  0.31902500  1
  O  O10  1  0.24251200  0.24859300  0.35656200  1
  O  O11  1  0.75748800  0.24859300  0.64343800  1
  O  O12  1  0.78821100  0.92713100  0.68097500  1
  O  O13  1  0.70841900  0.55711000  0.68607200  1
  O  O14  1  0.19512500  0.08142400  0.81528800  1
  O  O15  1  0.28476200  0.41804500  0.81709300  1
  O  O16  1  0.25779400  0.73752900  0.87792300  1
