# generated using pymatgen
data_LiCoOF2
_symmetry_space_group_name_H-M   'P 1'
_cell_length_a   8.60603800
_cell_length_b   5.28853000
_cell_length_c   5.68733308
_cell_angle_alpha   90.00000000
_cell_angle_beta   125.66406655
_cell_angle_gamma   90.00000000
_symmetry_Int_Tables_number   1
_chemical_formula_structural   LiCoOF2
_chemical_formula_sum   'Li4 Co4 O4 F8'
_cell_volume   210.30189437
_cell_formula_units_Z   4
loop_
 _symmetry_equiv_pos_site_id
 _symmetry_equiv_pos_as_xyz
  1  'x, y, z'
loop_
 _atom_site_type_symbol
 _atom_site_label
 _atom_site_symmetry_multiplicity
 _atom_site_fract_x
 _atom_site_fract_y
 _atom_site_fract_z
 _atom_site_occupancy
  Li  Li0  1  0.18951950  0.27018650  0.34314200  1
  Li  Li1  1  0.18951950  0.72981350  0.84314200  1
  Li  Li2  1  0.68951950  0.77018650  0.34314200  1
  Li  Li3  1  0.68951950  0.22981350  0.84314200  1
  Co  Co4  1  0.98155950  0.75629650  0.21184400  1
  Co  Co5  1  0.48155950  0.74370350  0.71184400  1
  Co  Co6  1  0.48155950  0.25629650  0.21184400  1
  Co  Co7  1  0.98155950  0.24370350  0.71184400  1
  O  O8  1  0.73853850  0.86408750  0.98331200  1
  O  O9  1  0.23853850  0.63591250  0.48331200  1
  O  O10  1  0.23853850  0.36408750  0.98331200  1
  O  O11  1  0.73853850  0.13591250  0.48331200  1
  F  F12  1  0.93292200  0.40903700  0.00701800  1
  F  F13  1  0.06987750  0.93060850  0.98569900  1
  F  F14  1  0.06987750  0.06939150  0.48569900  1
  F  F15  1  0.93292200  0.59096300  0.50701800  1
  F  F16  1  0.43292200  0.90903700  0.00701800  1
  F  F17  1  0.56987750  0.43060850  0.98569900  1
  F  F18  1  0.56987750  0.56939150  0.48569900  1
  F  F19  1  0.43292200  0.09096300  0.50701800  1
