# generated using pymatgen
data_Li3CuS2
_symmetry_space_group_name_H-M   'P 1'
_cell_length_a   6.63849783
_cell_length_b   6.63849783
_cell_length_c   15.41504300
_cell_angle_alpha   90.00000000
_cell_angle_beta   90.00000000
_cell_angle_gamma   120.00000000
_symmetry_Int_Tables_number   1
_chemical_formula_structural   Li3CuS2
_chemical_formula_sum   'Li18 Cu6 S12'
_cell_volume   588.32188888
_cell_formula_units_Z   6
loop_
 _symmetry_equiv_pos_site_id
 _symmetry_equiv_pos_as_xyz
  1  'x, y, z'
loop_
 _atom_site_type_symbol
 _atom_site_label
 _atom_site_symmetry_multiplicity
 _atom_site_fract_x
 _atom_site_fract_y
 _atom_site_fract_z
 _atom_site_occupancy
  Li  Li0  1  0.72321100  0.72321100  0.25000000  1
  Li  Li1  1  0.38987767  0.33333333  0.08333333  1
  Li  Li2  1  0.66666667  0.05654433  0.08333333  1
  Li  Li3  1  0.00000000  0.27678900  0.25000000  1
  Li  Li4  1  0.27678900  0.00000000  0.25000000  1
  Li  Li5  1  0.94345567  0.61012233  0.08333333  1
  Li  Li6  1  0.38987767  0.05654433  0.58333333  1
  Li  Li7  1  0.05654433  0.66666667  0.41666667  1
  Li  Li8  1  0.33333333  0.38987767  0.41666667  1
  Li  Li9  1  0.66666667  0.61012233  0.58333333  1
  Li  Li10  1  0.94345567  0.33333333  0.58333333  1
  Li  Li11  1  0.61012233  0.94345567  0.41666667  1
  Li  Li12  1  0.05654433  0.38987767  0.91666667  1
  Li  Li13  1  0.72321100  0.00000000  0.75000000  1
  Li  Li14  1  0.00000000  0.72321100  0.75000000  1
  Li  Li15  1  0.33333333  0.94345567  0.91666667  1
  Li  Li16  1  0.61012233  0.66666667  0.91666667  1
  Li  Li17  1  0.27678900  0.27678900  0.75000000  1
  Cu  Cu18  1  0.00000000  0.00000000  0.00000000  1
  Cu  Cu19  1  0.33333333  0.66666667  0.16666667  1
  Cu  Cu20  1  0.66666667  0.33333333  0.33333333  1
  Cu  Cu21  1  0.00000000  0.00000000  0.50000000  1
  Cu  Cu22  1  0.33333333  0.66666667  0.66666667  1
  Cu  Cu23  1  0.66666667  0.33333333  0.83333333  1
  S  S24  1  0.33333333  0.66666667  0.02867567  1
  S  S25  1  0.33333333  0.66666667  0.30465767  1
  S  S26  1  0.33333333  0.66666667  0.80465767  1
  S  S27  1  0.33333333  0.66666667  0.52867567  1
  S  S28  1  0.00000000  0.00000000  0.36200900  1
  S  S29  1  0.00000000  0.00000000  0.63799100  1
  S  S30  1  1.00000000  0.00000000  0.13799100  1
  S  S31  1  0.00000000  0.00000000  0.86200900  1
  S  S32  1  0.66666667  0.33333333  0.69534233  1
  S  S33  1  0.66666667  0.33333333  0.97132433  1
  S  S34  1  0.66666667  0.33333333  0.47132433  1
  S  S35  1  0.66666667  0.33333333  0.19534233  1
