# generated using pymatgen
data_Ba3CaI8
_symmetry_space_group_name_H-M   'P 1'
_cell_length_a   8.23681400
_cell_length_b   8.23681400
_cell_length_c   16.45835400
_cell_angle_alpha   90.00000000
_cell_angle_beta   90.00000000
_cell_angle_gamma   90.00000000
_symmetry_Int_Tables_number   1
_chemical_formula_structural   Ba3CaI8
_chemical_formula_sum   'Ba6 Ca2 I16'
_cell_volume   1116.61875313
_cell_formula_units_Z   2
loop_
 _symmetry_equiv_pos_site_id
 _symmetry_equiv_pos_as_xyz
  1  'x, y, z'
loop_
 _atom_site_type_symbol
 _atom_site_label
 _atom_site_symmetry_multiplicity
 _atom_site_fract_x
 _atom_site_fract_y
 _atom_site_fract_z
 _atom_site_occupancy
  Ba  Ba0  1  0.00000000  0.50000000  0.25000000  1
  Ba  Ba1  1  0.50000000  0.50000000  0.00000000  1
  Ba  Ba2  1  0.50000000  0.00000000  0.25000000  1
  Ba  Ba3  1  0.50000000  0.00000000  0.75000000  1
  Ba  Ba4  1  0.00000000  0.00000000  0.50000000  1
  Ba  Ba5  1  0.00000000  0.50000000  0.75000000  1
  Ca  Ca6  1  0.00000000  0.00000000  0.00000000  1
  Ca  Ca7  1  0.50000000  0.50000000  0.50000000  1
  I  I8  1  0.74160600  0.25839400  0.37895400  1
  I  I9  1  0.74160600  0.74160600  0.37895400  1
  I  I10  1  0.24160600  0.24160600  0.12104600  1
  I  I11  1  0.24160600  0.75839400  0.12104600  1
  I  I12  1  0.25839400  0.74160600  0.37895400  1
  I  I13  1  0.25839400  0.25839400  0.37895400  1
  I  I14  1  0.75839400  0.75839400  0.12104600  1
  I  I15  1  0.75839400  0.24160600  0.12104600  1
  I  I16  1  0.24160600  0.75839400  0.87895400  1
  I  I17  1  0.24160600  0.24160600  0.87895400  1
  I  I18  1  0.74160600  0.74160600  0.62104600  1
  I  I19  1  0.74160600  0.25839400  0.62104600  1
  I  I20  1  0.75839400  0.24160600  0.87895400  1
  I  I21  1  0.75839400  0.75839400  0.87895400  1
  I  I22  1  0.25839400  0.25839400  0.62104600  1
  I  I23  1  0.25839400  0.74160600  0.62104600  1
