# generated using pymatgen
data_Li2FeO2F
_symmetry_space_group_name_H-M   'P 1'
_cell_length_a   5.15261000
_cell_length_b   8.94988400
_cell_length_c   9.86945656
_cell_angle_alpha   90.00000000
_cell_angle_beta   99.93807300
_cell_angle_gamma   90.00000000
_symmetry_Int_Tables_number   1
_chemical_formula_structural   Li2FeO2F
_chemical_formula_sum   'Li16 Fe8 O16 F8'
_cell_volume   448.30324589
_cell_formula_units_Z   8
loop_
 _symmetry_equiv_pos_site_id
 _symmetry_equiv_pos_as_xyz
  1  'x, y, z'
loop_
 _atom_site_type_symbol
 _atom_site_label
 _atom_site_symmetry_multiplicity
 _atom_site_fract_x
 _atom_site_fract_y
 _atom_site_fract_z
 _atom_site_occupancy
  Li  Li0  1  0.74322850  0.90942550  0.75348800  1
  Li  Li1  1  0.73642700  0.74691900  0.25052800  1
  Li  Li2  1  0.50000000  0.59132900  0.00000000  1
  Li  Li3  1  0.25677150  0.90942550  0.24651200  1
  Li  Li4  1  0.26357300  0.74691900  0.74947200  1
  Li  Li5  1  0.25971200  0.59687100  0.24297400  1
  Li  Li6  1  0.00000000  0.74284400  0.00000000  1
  Li  Li7  1  0.74028800  0.59687100  0.75702600  1
  Li  Li8  1  0.24322850  0.40942550  0.75348800  1
  Li  Li9  1  0.23642700  0.24691900  0.25052800  1
  Li  Li10  1  0.00000000  0.09132900  0.00000000  1
  Li  Li11  1  0.75677150  0.40942550  0.24651200  1
  Li  Li12  1  0.76357300  0.24691900  0.74947200  1
  Li  Li13  1  0.75971200  0.09687100  0.24297400  1
  Li  Li14  1  0.50000000  0.24284400  0.00000000  1
  Li  Li15  1  0.24028800  0.09687100  0.75702600  1
  Fe  Fe16  1  0.50000000  0.75197600  0.50000000  1
  Fe  Fe17  1  0.50000000  0.88873400  0.00000000  1
  Fe  Fe18  1  0.00000000  0.58479600  0.50000000  1
  Fe  Fe19  1  0.00000000  0.91874600  0.50000000  1
  Fe  Fe20  1  0.00000000  0.25197600  0.50000000  1
  Fe  Fe21  1  0.00000000  0.38873400  0.00000000  1
  Fe  Fe22  1  0.50000000  0.08479600  0.50000000  1
  Fe  Fe23  1  0.50000000  0.41874600  0.50000000  1
  O  O24  1  0.62939950  0.91839850  0.38505200  1
  O  O25  1  0.62282850  0.75614150  0.88031000  1
  O  O26  1  0.37132150  0.58513650  0.61639000  1
  O  O27  1  0.37060050  0.91839850  0.61494800  1
  O  O28  1  0.37717150  0.75614150  0.11969000  1
  O  O29  1  0.12690000  0.75153800  0.38345000  1
  O  O30  1  0.87310000  0.75153800  0.61655000  1
  O  O31  1  0.62867850  0.58513650  0.38361000  1
  O  O32  1  0.12939950  0.41839850  0.38505200  1
  O  O33  1  0.12282850  0.25614150  0.88031000  1
  O  O34  1  0.87132150  0.08513650  0.61639000  1
  O  O35  1  0.87060050  0.41839850  0.61494800  1
  O  O36  1  0.87717150  0.25614150  0.11969000  1
  O  O37  1  0.62690000  0.25153800  0.38345000  1
  O  O38  1  0.37310000  0.25153800  0.61655000  1
  O  O39  1  0.12867850  0.08513650  0.38361000  1
  F  F40  1  0.86893800  0.92004700  0.12170300  1
  F  F41  1  0.11659800  0.57631200  0.88128000  1
  F  F42  1  0.13106200  0.92004700  0.87829700  1
  F  F43  1  0.88340200  0.57631200  0.11872000  1
  F  F44  1  0.36893800  0.42004700  0.12170300  1
  F  F45  1  0.61659800  0.07631200  0.88128000  1
  F  F46  1  0.63106200  0.42004700  0.87829700  1
  F  F47  1  0.38340200  0.07631200  0.11872000  1
