# generated using pymatgen
data_Cr4OF11
_symmetry_space_group_name_H-M   'P 1'
_cell_length_a   5.09551042
_cell_length_b   5.34210772
_cell_length_c   16.93325888
_cell_angle_alpha   88.26831925
_cell_angle_beta   98.30173807
_cell_angle_gamma   118.29010605
_symmetry_Int_Tables_number   1
_chemical_formula_structural   Cr4OF11
_chemical_formula_sum   'Cr8 O2 F22'
_cell_volume   401.24223166
_cell_formula_units_Z   2
loop_
 _symmetry_equiv_pos_site_id
 _symmetry_equiv_pos_as_xyz
  1  'x, y, z'
loop_
 _atom_site_type_symbol
 _atom_site_label
 _atom_site_symmetry_multiplicity
 _atom_site_fract_x
 _atom_site_fract_y
 _atom_site_fract_z
 _atom_site_occupancy
  Cr  Cr0  1  0.25492100  0.64279800  0.87135400  1
  Cr  Cr1  1  0.24341400  0.13472100  0.37911300  1
  Cr  Cr2  1  0.49834500  0.75373400  0.25030900  1
  Cr  Cr3  1  0.49103600  0.23156600  0.75351500  1
  Cr  Cr4  1  0.75031200  0.86769500  0.62469500  1
  Cr  Cr5  1  0.75043400  0.37746100  0.12499300  1
  Cr  Cr6  1  0.00787200  0.48739000  0.49719000  1
  Cr  Cr7  1  0.00299500  0.00489500  0.99929900  1
  O  O8  1  0.25335400  0.93755500  0.81265200  1
  O  O9  1  0.18574800  0.28161200  0.46804200  1
  F  F10  1  0.18699700  0.78296000  0.96716600  1
  F  F11  1  0.24529500  0.81298800  0.43719200  1
  F  F12  1  0.24253800  0.31836000  0.93561000  1
  F  F13  1  0.31580600  0.97109600  0.28534900  1
  F  F14  1  0.31498800  0.65746700  0.59124700  1
  F  F15  1  0.31632500  0.46742500  0.78215500  1
  F  F16  1  0.18612500  0.59379400  0.15727400  1
  F  F17  1  0.18621400  0.09052400  0.65829000  1
  F  F18  1  0.68690500  0.84220100  0.90663200  1
  F  F19  1  0.24882000  0.43731600  0.31232700  1
  F  F20  1  0.73769900  0.55555700  0.68903600  1
  F  F21  1  0.31514800  0.15812900  0.09255800  1
  F  F22  1  0.81416200  0.90713000  0.34330300  1
  F  F23  1  0.81673000  0.40808400  0.84239600  1
  F  F24  1  0.82047800  0.71213800  0.53208800  1
  F  F25  1  0.68439700  0.53325600  0.21817400  1
  F  F26  1  0.68281300  0.34273400  0.40683200  1
  F  F27  1  0.68775000  0.03063600  0.71790000  1
  F  F28  1  0.75477800  0.69019400  0.06218400  1
  F  F29  1  0.75649900  0.18592900  0.56207900  1
  F  F30  1  0.74756600  0.06347200  0.18736300  1
  F  F31  1  0.81353600  0.21918200  0.03168300  1
