# generated using pymatgen
data_KH4O4F
_symmetry_space_group_name_H-M   'P 1'
_cell_length_a   6.21420200
_cell_length_b   12.19781900
_cell_length_c   13.02330300
_cell_angle_alpha   90.00000000
_cell_angle_beta   90.00000000
_cell_angle_gamma   90.00000000
_symmetry_Int_Tables_number   1
_chemical_formula_structural   KH4O4F
_chemical_formula_sum   'K8 H32 O32 F8'
_cell_volume   987.16260660
_cell_formula_units_Z   8
loop_
 _symmetry_equiv_pos_site_id
 _symmetry_equiv_pos_as_xyz
  1  'x, y, z'
loop_
 _atom_site_type_symbol
 _atom_site_label
 _atom_site_symmetry_multiplicity
 _atom_site_fract_x
 _atom_site_fract_y
 _atom_site_fract_z
 _atom_site_occupancy
  K  K0  1  0.23108900  0.13984700  0.10244700  1
  K  K1  1  0.26891100  0.63984700  0.10244700  1
  K  K2  1  0.73108900  0.13984700  0.39755300  1
  K  K3  1  0.76891100  0.63984700  0.39755300  1
  K  K4  1  0.23108900  0.36015300  0.60244700  1
  K  K5  1  0.26891100  0.86015300  0.60244700  1
  K  K6  1  0.76891100  0.86015300  0.89755300  1
  K  K7  1  0.73108900  0.36015300  0.89755300  1
  H  H8  1  0.06768500  0.39215700  0.19521700  1
  H  H9  1  0.43231500  0.89215700  0.19521700  1
  H  H10  1  0.68360300  0.17084300  0.17919100  1
  H  H11  1  0.81639700  0.67084300  0.17919100  1
  H  H12  1  0.79836700  0.00247300  0.24616200  1
  H  H13  1  0.70163300  0.50247300  0.24616200  1
  H  H14  1  0.22481700  0.87423000  0.29228400  1
  H  H15  1  0.27518300  0.37423000  0.29228400  1
  H  H16  1  0.72481700  0.87423000  0.20771600  1
  H  H17  1  0.77518300  0.37423000  0.20771600  1
  H  H18  1  0.20163300  0.50247300  0.25383800  1
  H  H19  1  0.29836700  0.00247300  0.25383800  1
  H  H20  1  0.18360300  0.17084300  0.32080900  1
  H  H21  1  0.31639700  0.67084300  0.32080900  1
  H  H22  1  0.56768500  0.39215700  0.30478300  1
  H  H23  1  0.93231500  0.89215700  0.30478300  1
  H  H24  1  0.06768500  0.10784300  0.69521700  1
  H  H25  1  0.43231500  0.60784300  0.69521700  1
  H  H26  1  0.68360300  0.32915700  0.67919100  1
  H  H27  1  0.81639700  0.82915700  0.67919100  1
  H  H28  1  0.70163300  0.99752700  0.74616200  1
  H  H29  1  0.79836700  0.49752700  0.74616200  1
  H  H30  1  0.27518300  0.12577000  0.79228400  1
  H  H31  1  0.22481700  0.62577000  0.79228400  1
  H  H32  1  0.72481700  0.62577000  0.70771600  1
  H  H33  1  0.77518300  0.12577000  0.70771600  1
  H  H34  1  0.20163300  0.99752700  0.75383800  1
  H  H35  1  0.29836700  0.49752700  0.75383800  1
  H  H36  1  0.18360300  0.32915700  0.82080900  1
  H  H37  1  0.31639700  0.82915700  0.82080900  1
  H  H38  1  0.56768500  0.10784300  0.80478300  1
  H  H39  1  0.93231500  0.60784300  0.80478300  1
  O  O40  1  0.74210000  0.06978400  0.02143900  1
  O  O41  1  0.75790000  0.56978400  0.02143900  1
  O  O42  1  0.33755700  0.34956100  0.01850700  1
  O  O43  1  0.16244300  0.84956100  0.01850700  1
  O  O44  1  0.20293900  0.42387500  0.22766000  1
  O  O45  1  0.29706100  0.92387500  0.22766000  1
  O  O46  1  0.61378300  0.10400300  0.20376300  1
  O  O47  1  0.88621700  0.60400300  0.20376300  1
  O  O48  1  0.11378300  0.10400300  0.29623700  1
  O  O49  1  0.38621700  0.60400300  0.29623700  1
  O  O50  1  0.70293900  0.42387500  0.27234000  1
  O  O51  1  0.79706100  0.92387500  0.27234000  1
  O  O52  1  0.83755700  0.34956100  0.48149300  1
  O  O53  1  0.66244300  0.84956100  0.48149300  1
  O  O54  1  0.25790000  0.56978400  0.47856100  1
  O  O55  1  0.24210000  0.06978400  0.47856100  1
  O  O56  1  0.74210000  0.43021600  0.52143900  1
  O  O57  1  0.75790000  0.93021600  0.52143900  1
  O  O58  1  0.33755700  0.15043900  0.51850700  1
  O  O59  1  0.16244300  0.65043900  0.51850700  1
  O  O60  1  0.20293900  0.07612500  0.72766000  1
  O  O61  1  0.29706100  0.57612500  0.72766000  1
  O  O62  1  0.61378300  0.39599700  0.70376300  1
  O  O63  1  0.88621700  0.89599700  0.70376300  1
  O  O64  1  0.38621700  0.89599700  0.79623700  1
  O  O65  1  0.11378300  0.39599700  0.79623700  1
  O  O66  1  0.70293900  0.07612500  0.77234000  1
  O  O67  1  0.79706100  0.57612500  0.77234000  1
  O  O68  1  0.66244300  0.65043900  0.98149300  1
  O  O69  1  0.83755700  0.15043900  0.98149300  1
  O  O70  1  0.25790000  0.93021600  0.97856100  1
  O  O71  1  0.24210000  0.43021600  0.97856100  1
  F  F72  1  0.88363300  0.32934900  0.14058900  1
  F  F73  1  0.61636700  0.82934900  0.14058900  1
  F  F74  1  0.38363300  0.32934900  0.35941100  1
  F  F75  1  0.11636700  0.82934900  0.35941100  1
  F  F76  1  0.88363300  0.17065100  0.64058900  1
  F  F77  1  0.61636700  0.67065100  0.64058900  1
  F  F78  1  0.11636700  0.67065100  0.85941100  1
  F  F79  1  0.38363300  0.17065100  0.85941100  1
