# generated using pymatgen
data_V2O3F
_symmetry_space_group_name_H-M   'P 1'
_cell_length_a   9.37525400
_cell_length_b   6.00029400
_cell_length_c   4.68608686
_cell_angle_alpha   90.00000000
_cell_angle_beta   91.83414769
_cell_angle_gamma   90.00000000
_symmetry_Int_Tables_number   1
_chemical_formula_structural   V2O3F
_chemical_formula_sum   'V8 O12 F4'
_cell_volume   263.47738520
_cell_formula_units_Z   4
loop_
 _symmetry_equiv_pos_site_id
 _symmetry_equiv_pos_as_xyz
  1  'x, y, z'
loop_
 _atom_site_type_symbol
 _atom_site_label
 _atom_site_symmetry_multiplicity
 _atom_site_fract_x
 _atom_site_fract_y
 _atom_site_fract_z
 _atom_site_occupancy
  V  V0  1  0.00000000  0.00000000  0.50000000  1
  V  V1  1  0.50000000  0.00000000  0.50000000  1
  V  V2  1  0.75000000  0.75000000  0.00000000  1
  V  V3  1  0.75000000  0.25000000  0.00000000  1
  V  V4  1  0.50000000  0.50000000  0.50000000  1
  V  V5  1  0.00000000  0.50000000  0.50000000  1
  V  V6  1  0.25000000  0.25000000  0.00000000  1
  V  V7  1  0.25000000  0.75000000  0.00000000  1
  O  O8  1  0.84516900  0.00000000  0.80518700  1
  O  O9  1  0.59568850  0.25263550  0.69334600  1
  O  O10  1  0.59568850  0.74736450  0.69334600  1
  O  O11  1  0.40431150  0.74736450  0.30665400  1
  O  O12  1  0.40431150  0.25263550  0.30665400  1
  O  O13  1  0.15483100  0.00000000  0.19481300  1
  O  O14  1  0.34516900  0.50000000  0.80518700  1
  O  O15  1  0.09568850  0.75263550  0.69334600  1
  O  O16  1  0.09568850  0.24736450  0.69334600  1
  O  O17  1  0.90431150  0.24736450  0.30665400  1
  O  O18  1  0.90431150  0.75263550  0.30665400  1
  O  O19  1  0.65483100  0.50000000  0.19481300  1
  F  F20  1  0.35080300  0.00000000  0.79563100  1
  F  F21  1  0.64919700  0.00000000  0.20436900  1
  F  F22  1  0.85080300  0.50000000  0.79563100  1
  F  F23  1  0.14919700  0.50000000  0.20436900  1
