# generated using pymatgen
data_SmY3O6
_symmetry_space_group_name_H-M   'P 1'
_cell_length_a   9.32779200
_cell_length_b   9.33991044
_cell_length_c   9.34030060
_cell_angle_alpha   109.47097067
_cell_angle_beta   109.44321621
_cell_angle_gamma   109.46168557
_symmetry_Int_Tables_number   1
_chemical_formula_structural   SmY3O6
_chemical_formula_sum   'Sm4 Y12 O24'
_cell_volume   626.70460487
_cell_formula_units_Z   4
loop_
 _symmetry_equiv_pos_site_id
 _symmetry_equiv_pos_as_xyz
  1  'x, y, z'
loop_
 _atom_site_type_symbol
 _atom_site_label
 _atom_site_symmetry_multiplicity
 _atom_site_fract_x
 _atom_site_fract_y
 _atom_site_fract_z
 _atom_site_occupancy
  Sm  Sm0  1  0.99945900  0.99946600  0.49864100  1
  Sm  Sm1  1  0.99984700  0.50187400  0.00011700  1
  Sm  Sm2  1  0.50012700  0.50022900  0.50205000  1
  Sm  Sm3  1  0.25152000  0.21858300  0.96912100  1
  Y  Y4  1  0.50060100  0.99917100  0.00000400  1
  Y  Y5  1  0.74847500  0.78211500  0.03159900  1
  Y  Y6  1  0.46891400  0.75309600  0.21862900  1
  Y  Y7  1  0.02985100  0.24974400  0.28204700  1
  Y  Y8  1  0.71664100  0.96744600  0.75083000  1
  Y  Y9  1  0.21882100  0.47073900  0.75012000  1
  Y  Y10  1  0.25048800  0.71874400  0.46925900  1
  Y  Y11  1  0.74952000  0.28126400  0.53074100  1
  Y  Y12  1  0.78218900  0.53095600  0.24989300  1
  Y  Y13  1  0.28231900  0.03149700  0.24988100  1
  Y  Y14  1  0.96841000  0.74912300  0.71759600  1
  Y  Y15  1  0.53283100  0.24837200  0.78194100  1
  O  O16  1  0.26811900  0.51266400  0.54233000  1
  O  O17  1  0.46883000  0.73082400  0.95700000  1
  O  O18  1  0.22964400  0.95317200  0.96908000  1
  O  O19  1  0.72514100  0.75574000  0.26753400  1
  O  O20  1  0.00990000  0.54069900  0.76703900  1
  O  O21  1  0.51193100  0.74392200  0.47013600  1
  O  O22  1  0.02878200  0.98700000  0.25499600  1
  O  O23  1  0.23203600  0.77537900  0.24496600  1
  O  O24  1  0.45670900  0.96798300  0.73022100  1
  O  O25  1  0.24466900  0.47533200  0.01256200  1
  O  O26  1  0.95803700  0.23135300  0.48852400  1
  O  O27  1  0.74380700  0.73189200  0.77482600  1
  O  O28  1  0.54346400  0.03202700  0.26978900  1
  O  O29  1  0.04176200  0.76846400  0.51139500  1
  O  O30  1  0.75510300  0.52969400  0.98750100  1
  O  O31  1  0.25636500  0.26834400  0.23059600  1
  O  O32  1  0.96687100  0.00835700  0.74011400  1
  O  O33  1  0.76887000  0.22549400  0.75692200  1
  O  O34  1  0.98902700  0.45847600  0.23127200  1
  O  O35  1  0.48912100  0.25546800  0.53010300  1
  O  O36  1  0.27533300  0.24551000  0.72880900  1
  O  O37  1  0.76999400  0.04286600  0.03162200  1
  O  O38  1  0.73087500  0.48836900  0.45758700  1
  O  O39  1  0.53560200  0.26855100  0.04261000  1
