# generated using pymatgen
data_AsS2NF6
_symmetry_space_group_name_H-M   'P 1'
_cell_length_a   9.60307800
_cell_length_b   6.74881600
_cell_length_c   5.45920759
_cell_angle_alpha   90.00000000
_cell_angle_beta   92.44049652
_cell_angle_gamma   90.00000000
_symmetry_Int_Tables_number   1
_chemical_formula_structural   AsS2NF6
_chemical_formula_sum   'As2 S4 N2 F12'
_cell_volume   353.48709402
_cell_formula_units_Z   2
loop_
 _symmetry_equiv_pos_site_id
 _symmetry_equiv_pos_as_xyz
  1  'x, y, z'
loop_
 _atom_site_type_symbol
 _atom_site_label
 _atom_site_symmetry_multiplicity
 _atom_site_fract_x
 _atom_site_fract_y
 _atom_site_fract_z
 _atom_site_occupancy
  As  As0  1  0.00000000  0.00000000  0.00000000  1
  As  As1  1  0.50000000  0.50000000  0.00000000  1
  S  S2  1  0.64151400  0.00000000  0.62475000  1
  S  S3  1  0.35848600  0.00000000  0.37525000  1
  S  S4  1  0.14151400  0.50000000  0.62475000  1
  S  S5  1  0.85848600  0.50000000  0.37525000  1
  N  N6  1  0.50000000  0.00000000  0.50000000  1
  N  N7  1  0.00000000  0.50000000  0.50000000  1
  F  F8  1  0.39284500  0.68625300  0.85830700  1
  F  F9  1  0.60715500  0.31374700  0.14169300  1
  F  F10  1  0.39284500  0.31374700  0.85830700  1
  F  F11  1  0.10732200  0.00000000  0.74401800  1
  F  F12  1  0.89267800  0.00000000  0.25598200  1
  F  F13  1  0.60715500  0.68625300  0.14169300  1
  F  F14  1  0.89284500  0.18625300  0.85830700  1
  F  F15  1  0.10715500  0.81374700  0.14169300  1
  F  F16  1  0.89284500  0.81374700  0.85830700  1
  F  F17  1  0.60732200  0.50000000  0.74401800  1
  F  F18  1  0.39267800  0.50000000  0.25598200  1
  F  F19  1  0.10715500  0.18625300  0.14169300  1
