# generated using pymatgen
data_Fe4O3F5
_symmetry_space_group_name_H-M   'P 1'
_cell_length_a   19.18635800
_cell_length_b   6.18536600
_cell_length_c   4.80012502
_cell_angle_alpha   90.00000000
_cell_angle_beta   94.10041081
_cell_angle_gamma   90.00000000
_symmetry_Int_Tables_number   1
_chemical_formula_structural   Fe4O3F5
_chemical_formula_sum   'Fe16 O12 F20'
_cell_volume   568.19498185
_cell_formula_units_Z   4
loop_
 _symmetry_equiv_pos_site_id
 _symmetry_equiv_pos_as_xyz
  1  'x, y, z'
loop_
 _atom_site_type_symbol
 _atom_site_label
 _atom_site_symmetry_multiplicity
 _atom_site_fract_x
 _atom_site_fract_y
 _atom_site_fract_z
 _atom_site_occupancy
  Fe  Fe0  1  0.62223100  0.74212600  0.48877900  1
  Fe  Fe1  1  0.87210050  0.26368350  0.48946600  1
  Fe  Fe2  1  0.87210050  0.73631650  0.48946600  1
  Fe  Fe3  1  0.62223100  0.25787400  0.48877900  1
  Fe  Fe4  1  0.99988800  0.50000000  0.00054600  1
  Fe  Fe5  1  0.74726300  0.50000000  0.99110200  1
  Fe  Fe6  1  0.50255600  0.50000000  0.01039400  1
  Fe  Fe7  1  0.75669600  0.00000000  0.02400200  1
  Fe  Fe8  1  0.12223100  0.24212600  0.48877900  1
  Fe  Fe9  1  0.37210050  0.76368350  0.48946600  1
  Fe  Fe10  1  0.37210050  0.23631650  0.48946600  1
  Fe  Fe11  1  0.12223100  0.75787400  0.48877900  1
  Fe  Fe12  1  0.49988800  0.00000000  0.00054600  1
  Fe  Fe13  1  0.24726300  0.00000000  0.99110200  1
  Fe  Fe14  1  0.00255600  0.00000000  0.01039400  1
  Fe  Fe15  1  0.25669600  0.50000000  0.02400200  1
  O  O16  1  0.57640600  0.00000000  0.30170700  1
  O  O17  1  0.83180300  0.00000000  0.32520500  1
  O  O18  1  0.57603900  0.50000000  0.31134300  1
  O  O19  1  0.82229000  0.50000000  0.29142700  1
  O  O20  1  0.92426300  0.50000000  0.69841500  1
  O  O21  1  0.67385300  0.50000000  0.69947100  1
  O  O22  1  0.07640600  0.50000000  0.30170700  1
  O  O23  1  0.33180300  0.50000000  0.32520500  1
  O  O24  1  0.07603900  0.00000000  0.31134300  1
  O  O25  1  0.32229000  0.00000000  0.29142700  1
  O  O26  1  0.42426300  0.00000000  0.69841500  1
  O  O27  1  0.17385300  0.00000000  0.69947100  1
  F  F28  1  0.69896900  0.74302800  0.19838700  1
  F  F29  1  0.69896900  0.25697200  0.19838700  1
  F  F30  1  0.94943150  0.26220750  0.19991300  1
  F  F31  1  0.94943150  0.73779250  0.19991300  1
  F  F32  1  0.92599900  0.00000000  0.70408500  1
  F  F33  1  0.67642800  0.00000000  0.69994800  1
  F  F34  1  0.79916000  0.25975400  0.79561700  1
  F  F35  1  0.55058050  0.23637250  0.79896200  1
  F  F36  1  0.79916000  0.74024600  0.79561700  1
  F  F37  1  0.55058050  0.76362750  0.79896200  1
  F  F38  1  0.19896900  0.24302800  0.19838700  1
  F  F39  1  0.19896900  0.75697200  0.19838700  1
  F  F40  1  0.44943150  0.76220750  0.19991300  1
  F  F41  1  0.44943150  0.23779250  0.19991300  1
  F  F42  1  0.42599900  0.50000000  0.70408500  1
  F  F43  1  0.17642800  0.50000000  0.69994800  1
  F  F44  1  0.29916000  0.75975400  0.79561700  1
  F  F45  1  0.05058050  0.73637250  0.79896200  1
  F  F46  1  0.29916000  0.24024600  0.79561700  1
  F  F47  1  0.05058050  0.26362750  0.79896200  1
