# generated using pymatgen
data_K2Mn3P4(HO3)4
_symmetry_space_group_name_H-M   'P 1'
_cell_length_a   5.50732806
_cell_length_b   5.50732806
_cell_length_c   35.97711351
_cell_angle_alpha   90.00000000
_cell_angle_beta   90.00000000
_cell_angle_gamma   120.00000000
_symmetry_Int_Tables_number   1
_chemical_formula_structural   K2Mn3P4(HO3)4
_chemical_formula_sum   'K6 Mn9 P12 H12 O36'
_cell_volume   945.01530509
_cell_formula_units_Z   3
loop_
 _symmetry_equiv_pos_site_id
 _symmetry_equiv_pos_as_xyz
  1  'x, y, z'
loop_
 _atom_site_type_symbol
 _atom_site_label
 _atom_site_symmetry_multiplicity
 _atom_site_fract_x
 _atom_site_fract_y
 _atom_site_fract_z
 _atom_site_occupancy
  K  K0  1  0.00000000  0.00000000  0.18660300  1
  K  K1  1  0.66666667  0.33333333  0.14673033  1
  K  K2  1  0.66666667  0.33333333  0.51993633  1
  K  K3  1  0.33333333  0.66666667  0.48006367  1
  K  K4  1  0.33333333  0.66666667  0.85326967  1
  K  K5  1  0.00000000  0.00000000  0.81339700  1
  Mn  Mn6  1  0.66666667  0.33333333  0.24847867  1
  Mn  Mn7  1  0.00000000  0.00000000  0.08485467  1
  Mn  Mn8  1  0.00000000  0.00000000  0.00000000  1
  Mn  Mn9  1  0.33333333  0.66666667  0.58181200  1
  Mn  Mn10  1  0.66666667  0.33333333  0.41818800  1
  Mn  Mn11  1  0.66666667  0.33333333  0.33333333  1
  Mn  Mn12  1  0.00000000  0.00000000  0.91514533  1
  Mn  Mn13  1  0.33333333  0.66666667  0.75152133  1
  Mn  Mn14  1  0.33333333  0.66666667  0.66666667  1
  P  P15  1  0.00000000  0.00000000  0.30356700  1
  P  P16  1  0.66666667  0.33333333  0.02976633  1
  P  P17  1  0.33333333  0.66666667  0.22502667  1
  P  P18  1  0.33333333  0.66666667  0.10830667  1
  P  P19  1  0.66666667  0.33333333  0.63690033  1
  P  P20  1  0.33333333  0.66666667  0.36309967  1
  P  P21  1  0.00000000  0.00000000  0.55836000  1
  P  P22  1  0.00000000  0.00000000  0.44164000  1
  P  P23  1  0.33333333  0.66666667  0.97023367  1
  P  P24  1  0.00000000  0.00000000  0.69643300  1
  P  P25  1  0.66666667  0.33333333  0.89169333  1
  P  P26  1  0.66666667  0.33333333  0.77497333  1
  H  H27  1  0.33333333  0.66666667  0.32318567  1
  H  H28  1  0.33333333  0.66666667  0.01014767  1
  H  H29  1  0.33333333  0.66666667  0.26417533  1
  H  H30  1  0.33333333  0.66666667  0.06915800  1
  H  H31  1  0.00000000  0.00000000  0.65651900  1
  H  H32  1  0.00000000  0.00000000  0.34348100  1
  H  H33  1  0.00000000  0.00000000  0.59750867  1
  H  H34  1  0.00000000  0.00000000  0.40249133  1
  H  H35  1  0.66666667  0.33333333  0.98985233  1
  H  H36  1  0.66666667  0.33333333  0.67681433  1
  H  H37  1  0.66666667  0.33333333  0.93084200  1
  H  H38  1  0.66666667  0.33333333  0.73582467  1
  O  O39  1  0.84364242  0.15635758  0.29206333  1
  O  O40  1  0.84364242  0.68728483  0.29206333  1
  O  O41  1  0.31271517  0.15635758  0.29206333  1
  O  O42  1  0.35395150  0.17697575  0.04127000  1
  O  O43  1  0.82302425  0.64604850  0.04127000  1
  O  O44  1  0.82302425  0.17697575  0.04127000  1
  O  O45  1  0.48788592  0.97577183  0.21231933  1
  O  O46  1  0.48788592  0.51211408  0.21231933  1
  O  O47  1  0.02422817  0.51211408  0.21231933  1
  O  O48  1  0.64243850  0.82121925  0.12101400  1
  O  O49  1  0.17878075  0.82121925  0.12101400  1
  O  O50  1  0.17878075  0.35756150  0.12101400  1
  O  O51  1  0.51030908  0.48969092  0.62539667  1
  O  O52  1  0.51030908  0.02061817  0.62539667  1
  O  O53  1  0.97938183  0.48969092  0.62539667  1
  O  O54  1  0.02061817  0.51030908  0.37460333  1
  O  O55  1  0.48969092  0.97938183  0.37460333  1
  O  O56  1  0.48969092  0.51030908  0.37460333  1
  O  O57  1  0.15455258  0.30910517  0.54565267  1
  O  O58  1  0.15455258  0.84544742  0.54565267  1
  O  O59  1  0.69089483  0.84544742  0.54565267  1
  O  O60  1  0.30910517  0.15455258  0.45434733  1
  O  O61  1  0.84544742  0.15455258  0.45434733  1
  O  O62  1  0.84544742  0.69089483  0.45434733  1
  O  O63  1  0.17697575  0.82302425  0.95873000  1
  O  O64  1  0.17697575  0.35395150  0.95873000  1
  O  O65  1  0.64604850  0.82302425  0.95873000  1
  O  O66  1  0.68728483  0.84364242  0.70793667  1
  O  O67  1  0.15635758  0.31271517  0.70793667  1
  O  O68  1  0.15635758  0.84364242  0.70793667  1
  O  O69  1  0.82121925  0.64243850  0.87898600  1
  O  O70  1  0.82121925  0.17878075  0.87898600  1
  O  O71  1  0.35756150  0.17878075  0.87898600  1
  O  O72  1  0.97577183  0.48788592  0.78768067  1
  O  O73  1  0.51211408  0.48788592  0.78768067  1
  O  O74  1  0.51211408  0.02422817  0.78768067  1
