# generated using pymatgen
data_Rb2MnS2
_symmetry_space_group_name_H-M   'P 1'
_cell_length_a   6.42450800
_cell_length_b   7.15407000
_cell_length_c   13.30305800
_cell_angle_alpha   90.00000000
_cell_angle_beta   90.00000000
_cell_angle_gamma   90.00000000
_symmetry_Int_Tables_number   1
_chemical_formula_structural   Rb2MnS2
_chemical_formula_sum   'Rb8 Mn4 S8'
_cell_volume   611.42690320
_cell_formula_units_Z   4
loop_
 _symmetry_equiv_pos_site_id
 _symmetry_equiv_pos_as_xyz
  1  'x, y, z'
loop_
 _atom_site_type_symbol
 _atom_site_label
 _atom_site_symmetry_multiplicity
 _atom_site_fract_x
 _atom_site_fract_y
 _atom_site_fract_z
 _atom_site_occupancy
  Rb  Rb0  1  0.00000000  0.16134300  0.35235000  1
  Rb  Rb1  1  0.50000000  0.33865700  0.14765000  1
  Rb  Rb2  1  0.00000000  0.66134300  0.14765000  1
  Rb  Rb3  1  0.50000000  0.83865700  0.35235000  1
  Rb  Rb4  1  0.50000000  0.66134300  0.85235000  1
  Rb  Rb5  1  0.00000000  0.83865700  0.64765000  1
  Rb  Rb6  1  0.50000000  0.16134300  0.64765000  1
  Rb  Rb7  1  0.00000000  0.33865700  0.85235000  1
  Mn  Mn8  1  0.75000000  0.00000000  0.00000000  1
  Mn  Mn9  1  0.25000000  0.00000000  0.00000000  1
  Mn  Mn10  1  0.25000000  0.50000000  0.50000000  1
  Mn  Mn11  1  0.75000000  0.50000000  0.50000000  1
  S  S12  1  0.50000000  0.81737300  0.09850900  1
  S  S13  1  0.00000000  0.68262700  0.40149100  1
  S  S14  1  0.50000000  0.31737300  0.40149100  1
  S  S15  1  0.00000000  0.18262700  0.09850900  1
  S  S16  1  0.00000000  0.31737300  0.59850900  1
  S  S17  1  0.50000000  0.18262700  0.90149100  1
  S  S18  1  0.00000000  0.81737300  0.90149100  1
  S  S19  1  0.50000000  0.68262700  0.59850900  1
