# generated using pymatgen
data_Al11AgO17
_symmetry_space_group_name_H-M   'P 1'
_cell_length_a   5.65716000
_cell_length_b   9.79283000
_cell_length_c   22.75298600
_cell_angle_alpha   90.00000000
_cell_angle_beta   90.00000000
_cell_angle_gamma   90.00000000
_symmetry_Int_Tables_number   1
_chemical_formula_structural   Al11AgO17
_chemical_formula_sum   'Al44 Ag4 O68'
_cell_volume   1260.50646343
_cell_formula_units_Z   4
loop_
 _symmetry_equiv_pos_site_id
 _symmetry_equiv_pos_as_xyz
  1  'x, y, z'
loop_
 _atom_site_type_symbol
 _atom_site_label
 _atom_site_symmetry_multiplicity
 _atom_site_fract_x
 _atom_site_fract_y
 _atom_site_fract_z
 _atom_site_occupancy
  Al  Al0  1  0.25083400  0.08384200  0.89247300  1
  Al  Al1  1  0.25083400  0.08384200  0.60752700  1
  Al  Al2  1  0.50125550  0.16710450  0.32419300  1
  Al  Al3  1  0.50008800  0.16662700  0.47512900  1
  Al  Al4  1  0.00032700  0.00000000  0.50000000  1
  Al  Al5  1  0.00032700  0.00000000  0.00000000  1
  Al  Al6  1  0.49958950  0.33264050  0.89247700  1
  Al  Al7  1  0.50125550  0.16710450  0.17580700  1
  Al  Al8  1  0.49958950  0.33264050  0.60752300  1
  Al  Al9  1  0.50008800  0.16662700  0.02487100  1
  Al  Al10  1  0.74937100  0.08349900  0.89311800  1
  Al  Al11  1  0.74937100  0.08349900  0.60688200  1
  Al  Al12  1  0.25083400  0.91615800  0.10752700  1
  Al  Al13  1  0.25083400  0.91615800  0.39247300  1
  Al  Al14  1  0.49958950  0.66735950  0.10752300  1
  Al  Al15  1  0.50125550  0.83289550  0.67580700  1
  Al  Al16  1  0.49958950  0.66735950  0.39247700  1
  Al  Al17  1  0.50125550  0.83289550  0.82419300  1
  Al  Al18  1  0.50008800  0.83337300  0.52487100  1
  Al  Al19  1  0.50008800  0.83337300  0.97512900  1
  Al  Al20  1  0.74937100  0.91650100  0.39311800  1
  Al  Al21  1  0.74937100  0.91650100  0.10688200  1
  Al  Al22  1  0.75083400  0.58384200  0.89247300  1
  Al  Al23  1  0.75083400  0.58384200  0.60752700  1
  Al  Al24  1  0.00125550  0.66710450  0.32419300  1
  Al  Al25  1  0.00008800  0.66662700  0.47512900  1
  Al  Al26  1  0.50032700  0.50000000  0.50000000  1
  Al  Al27  1  0.50032700  0.50000000  0.00000000  1
  Al  Al28  1  0.99958950  0.83264050  0.89247700  1
  Al  Al29  1  0.00125550  0.66710450  0.17580700  1
  Al  Al30  1  0.99958950  0.83264050  0.60752300  1
  Al  Al31  1  0.00008800  0.66662700  0.02487100  1
  Al  Al32  1  0.24937100  0.58349900  0.89311800  1
  Al  Al33  1  0.24937100  0.58349900  0.60688200  1
  Al  Al34  1  0.75083400  0.41615800  0.10752700  1
  Al  Al35  1  0.75083400  0.41615800  0.39247300  1
  Al  Al36  1  0.99958950  0.16735950  0.10752300  1
  Al  Al37  1  0.00125550  0.33289550  0.67580700  1
  Al  Al38  1  0.99958950  0.16735950  0.39247700  1
  Al  Al39  1  0.00125550  0.33289550  0.82419300  1
  Al  Al40  1  0.00008800  0.33337300  0.52487100  1
  Al  Al41  1  0.00008800  0.33337300  0.97512900  1
  Al  Al42  1  0.24937100  0.41650100  0.39311800  1
  Al  Al43  1  0.24937100  0.41650100  0.10688200  1
  Ag  Ag44  1  0.55717500  0.14760500  0.75000000  1
  Ag  Ag45  1  0.55717500  0.85239500  0.25000000  1
  Ag  Ag46  1  0.05717500  0.64760500  0.75000000  1
  Ag  Ag47  1  0.05717500  0.35239500  0.25000000  1
  O  O48  1  0.23604350  0.07864150  0.44990000  1
  O  O49  1  0.23604350  0.07864150  0.05010000  1
  O  O50  1  0.25433700  0.24855300  0.85430100  1
  O  O51  1  0.25433700  0.24855300  0.64569900  1
  O  O52  1  0.49693050  0.16564950  0.25000000  1
  O  O53  1  0.49974800  0.34281000  0.04988100  1
  O  O54  1  0.50076150  0.00347350  0.85360400  1
  O  O55  1  0.50076150  0.00347350  0.64639600  1
  O  O56  1  0.99973650  0.99988550  0.35815400  1
  O  O57  1  0.99973650  0.99988550  0.14184600  1
  O  O58  1  0.99973650  0.00011450  0.85815400  1
  O  O59  1  0.99973650  0.00011450  0.64184600  1
  O  O60  1  0.50029350  0.16656950  0.94449300  1
  O  O61  1  0.50029350  0.16656950  0.55550700  1
  O  O62  1  0.49974800  0.34281000  0.45011900  1
  O  O63  1  0.23604350  0.92135850  0.94990000  1
  O  O64  1  0.23604350  0.92135850  0.55010000  1
  O  O65  1  0.74517300  0.24788000  0.64639000  1
  O  O66  1  0.74517300  0.24788000  0.85361000  1
  O  O67  1  0.25433700  0.75144700  0.14569900  1
  O  O68  1  0.25433700  0.75144700  0.35430100  1
  O  O69  1  0.76412250  0.07843350  0.45007800  1
  O  O70  1  0.76412250  0.07843350  0.04992200  1
  O  O71  1  0.50029350  0.83343050  0.05550700  1
  O  O72  1  0.49693050  0.83435050  0.75000000  1
  O  O73  1  0.50076150  0.99652650  0.14639600  1
  O  O74  1  0.50076150  0.99652650  0.35360400  1
  O  O75  1  0.49974800  0.65719000  0.54988100  1
  O  O76  1  0.49974800  0.65719000  0.95011900  1
  O  O77  1  0.50029350  0.83343050  0.44449300  1
  O  O78  1  0.74517300  0.75212000  0.35361000  1
  O  O79  1  0.74517300  0.75212000  0.14639000  1
  O  O80  1  0.76412250  0.92156650  0.54992200  1
  O  O81  1  0.76412250  0.92156650  0.95007800  1
  O  O82  1  0.73604350  0.57864150  0.44990000  1
  O  O83  1  0.73604350  0.57864150  0.05010000  1
  O  O84  1  0.75433700  0.74855300  0.85430100  1
  O  O85  1  0.75433700  0.74855300  0.64569900  1
  O  O86  1  0.99693050  0.66564950  0.25000000  1
  O  O87  1  0.99974800  0.84281000  0.04988100  1
  O  O88  1  0.00076150  0.50347350  0.85360400  1
  O  O89  1  0.00076150  0.50347350  0.64639600  1
  O  O90  1  0.49973650  0.49988550  0.35815400  1
  O  O91  1  0.49973650  0.49988550  0.14184600  1
  O  O92  1  0.49973650  0.50011450  0.85815400  1
  O  O93  1  0.49973650  0.50011450  0.64184600  1
  O  O94  1  0.00029350  0.66656950  0.94449300  1
  O  O95  1  0.00029350  0.66656950  0.55550700  1
  O  O96  1  0.99974800  0.84281000  0.45011900  1
  O  O97  1  0.73604350  0.42135850  0.94990000  1
  O  O98  1  0.73604350  0.42135850  0.55010000  1
  O  O99  1  0.24517300  0.74788000  0.64639000  1
  O  O100  1  0.24517300  0.74788000  0.85361000  1
  O  O101  1  0.75433700  0.25144700  0.14569900  1
  O  O102  1  0.75433700  0.25144700  0.35430100  1
  O  O103  1  0.26412250  0.57843350  0.45007800  1
  O  O104  1  0.26412250  0.57843350  0.04992200  1
  O  O105  1  0.00029350  0.33343050  0.05550700  1
  O  O106  1  0.99693050  0.33435050  0.75000000  1
  O  O107  1  0.00076150  0.49652650  0.14639600  1
  O  O108  1  0.00076150  0.49652650  0.35360400  1
  O  O109  1  0.99974800  0.15719000  0.54988100  1
  O  O110  1  0.99974800  0.15719000  0.95011900  1
  O  O111  1  0.00029350  0.33343050  0.44449300  1
  O  O112  1  0.24517300  0.25212000  0.35361000  1
  O  O113  1  0.24517300  0.25212000  0.14639000  1
  O  O114  1  0.26412250  0.42156650  0.54992200  1
  O  O115  1  0.26412250  0.42156650  0.95007800  1
