# generated using pymatgen
data_AgPtO2
_symmetry_space_group_name_H-M   'P 1'
_cell_length_a   10.81292600
_cell_length_b   3.12498800
_cell_length_c   6.52955384
_cell_angle_alpha   90.00000000
_cell_angle_beta   94.98769383
_cell_angle_gamma   90.00000000
_symmetry_Int_Tables_number   1
_chemical_formula_structural   AgPtO2
_chemical_formula_sum   'Ag4 Pt4 O8'
_cell_volume   219.79988915
_cell_formula_units_Z   4
loop_
 _symmetry_equiv_pos_site_id
 _symmetry_equiv_pos_as_xyz
  1  'x, y, z'
loop_
 _atom_site_type_symbol
 _atom_site_label
 _atom_site_symmetry_multiplicity
 _atom_site_fract_x
 _atom_site_fract_y
 _atom_site_fract_z
 _atom_site_occupancy
  Ag  Ag0  1  0.63924000  0.00000000  0.44841000  1
  Ag  Ag1  1  0.86076000  0.50000000  0.55159000  1
  Ag  Ag2  1  0.13924000  0.50000000  0.44841000  1
  Ag  Ag3  1  0.36076000  0.00000000  0.55159000  1
  Pt  Pt4  1  0.61569000  0.50000000  0.94338000  1
  Pt  Pt5  1  0.88431000  0.00000000  0.05662000  1
  Pt  Pt6  1  0.11569000  0.00000000  0.94338000  1
  Pt  Pt7  1  0.38431000  0.50000000  0.05662000  1
  O  O8  1  0.68310000  0.00000000  0.12713000  1
  O  O9  1  0.93192000  0.50000000  0.24792000  1
  O  O10  1  0.56808000  0.00000000  0.75208000  1
  O  O11  1  0.81690000  0.50000000  0.87287000  1
  O  O12  1  0.18310000  0.50000000  0.12713000  1
  O  O13  1  0.43192000  0.00000000  0.24792000  1
  O  O14  1  0.06808000  0.50000000  0.75208000  1
  O  O15  1  0.31690000  0.00000000  0.87287000  1
