# generated using pymatgen
data_AgPbO2
_symmetry_space_group_name_H-M   'P 1'
_cell_length_a   13.03946600
_cell_length_b   3.56053000
_cell_length_c   6.50055942
_cell_angle_alpha   90.00000000
_cell_angle_beta   98.41203337
_cell_angle_gamma   90.00000000
_symmetry_Int_Tables_number   1
_chemical_formula_structural   AgPbO2
_chemical_formula_sum   'Ag4 Pb4 O8'
_cell_volume   298.55721621
_cell_formula_units_Z   4
loop_
 _symmetry_equiv_pos_site_id
 _symmetry_equiv_pos_as_xyz
  1  'x, y, z'
loop_
 _atom_site_type_symbol
 _atom_site_label
 _atom_site_symmetry_multiplicity
 _atom_site_fract_x
 _atom_site_fract_y
 _atom_site_fract_z
 _atom_site_occupancy
  Ag  Ag0  1  0.75032000  0.50000000  0.19532700  1
  Ag  Ag1  1  0.74968000  0.00000000  0.80467300  1
  Ag  Ag2  1  0.25032000  0.00000000  0.19532700  1
  Ag  Ag3  1  0.24968000  0.50000000  0.80467300  1
  Pb  Pb4  1  0.00000000  0.50000000  0.00000000  1
  Pb  Pb5  1  0.00000000  0.00000000  0.50000000  1
  Pb  Pb6  1  0.50000000  0.00000000  0.00000000  1
  Pb  Pb7  1  0.50000000  0.50000000  0.50000000  1
  O  O8  1  0.58764000  0.50000000  0.17037900  1
  O  O9  1  0.58760400  0.00000000  0.73793700  1
  O  O10  1  0.91239600  0.50000000  0.26206300  1
  O  O11  1  0.91236000  0.00000000  0.82962100  1
  O  O12  1  0.08764000  0.00000000  0.17037900  1
  O  O13  1  0.08760400  0.50000000  0.73793700  1
  O  O14  1  0.41239600  0.00000000  0.26206300  1
  O  O15  1  0.41236000  0.50000000  0.82962100  1
