# generated using pymatgen
data_HgS
_symmetry_space_group_name_H-M   'P 1'
_cell_length_a   4.43070827
_cell_length_b   4.43070827
_cell_length_c   9.74559100
_cell_angle_alpha   90.00000000
_cell_angle_beta   90.00000000
_cell_angle_gamma   120.00000000
_symmetry_Int_Tables_number   1
_chemical_formula_structural   HgS
_chemical_formula_sum   'Hg3 S3'
_cell_volume   165.68573742
_cell_formula_units_Z   3
loop_
 _symmetry_equiv_pos_site_id
 _symmetry_equiv_pos_as_xyz
  1  'x, y, z'
loop_
 _atom_site_type_symbol
 _atom_site_label
 _atom_site_symmetry_multiplicity
 _atom_site_fract_x
 _atom_site_fract_y
 _atom_site_fract_z
 _atom_site_occupancy
  Hg  Hg0  1  0.24155000  0.24155000  0.00000000  1
  Hg  Hg1  1  0.00000000  0.75845000  0.33333333  1
  Hg  Hg2  1  0.75845000  0.00000000  0.66666667  1
  S  S3  1  0.54348800  0.54348800  0.50000000  1
  S  S4  1  0.00000000  0.45651200  0.83333333  1
  S  S5  1  0.45651200  0.00000000  0.16666667  1
