# generated using pymatgen
data_SrTcN3
_symmetry_space_group_name_H-M   'P 1'
_cell_length_a   10.95441000
_cell_length_b   10.53851800
_cell_length_c   6.18054260
_cell_angle_alpha   90.00000000
_cell_angle_beta   106.04449804
_cell_angle_gamma   90.00000000
_symmetry_Int_Tables_number   1
_chemical_formula_structural   SrTcN3
_chemical_formula_sum   'Sr8 Tc8 N24'
_cell_volume   685.70910566
_cell_formula_units_Z   8
loop_
 _symmetry_equiv_pos_site_id
 _symmetry_equiv_pos_as_xyz
  1  'x, y, z'
loop_
 _atom_site_type_symbol
 _atom_site_label
 _atom_site_symmetry_multiplicity
 _atom_site_fract_x
 _atom_site_fract_y
 _atom_site_fract_z
 _atom_site_occupancy
  Sr  Sr0  1  0.00000000  0.67361000  0.25000000  1
  Sr  Sr1  1  0.00000000  0.90772000  0.75000000  1
  Sr  Sr2  1  0.00000000  0.32639000  0.75000000  1
  Sr  Sr3  1  0.00000000  0.09228000  0.25000000  1
  Sr  Sr4  1  0.50000000  0.17361000  0.25000000  1
  Sr  Sr5  1  0.50000000  0.40772000  0.75000000  1
  Sr  Sr6  1  0.50000000  0.82639000  0.75000000  1
  Sr  Sr7  1  0.50000000  0.59228000  0.25000000  1
  Tc  Tc8  1  0.21131000  0.41312000  0.25406000  1
  Tc  Tc9  1  0.78869000  0.41312000  0.24594000  1
  Tc  Tc10  1  0.21131000  0.58688000  0.75406000  1
  Tc  Tc11  1  0.78869000  0.58688000  0.74594000  1
  Tc  Tc12  1  0.71131000  0.91312000  0.25406000  1
  Tc  Tc13  1  0.28869000  0.91312000  0.24594000  1
  Tc  Tc14  1  0.71131000  0.08688000  0.75406000  1
  Tc  Tc15  1  0.28869000  0.08688000  0.74594000  1
  N  N16  1  0.84552000  0.47865000  0.00000000  1
  N  N17  1  0.37742000  0.38947000  0.33372000  1
  N  N18  1  0.62258000  0.61053000  0.66628000  1
  N  N19  1  0.86434000  0.27001000  0.33368000  1
  N  N20  1  0.62258000  0.38947000  0.16628000  1
  N  N21  1  0.84552000  0.52135000  0.50000000  1
  N  N22  1  0.37742000  0.61053000  0.83372000  1
  N  N23  1  0.15448000  0.52135000  0.00000000  1
  N  N24  1  0.15448000  0.47865000  0.50000000  1
  N  N25  1  0.13566000  0.27001000  0.16632000  1
  N  N26  1  0.13566000  0.72999000  0.66632000  1
  N  N27  1  0.86434000  0.72999000  0.83368000  1
  N  N28  1  0.34552000  0.97865000  0.00000000  1
  N  N29  1  0.87742000  0.88947000  0.33372000  1
  N  N30  1  0.12258000  0.11053000  0.66628000  1
  N  N31  1  0.36434000  0.77001000  0.33368000  1
  N  N32  1  0.12258000  0.88947000  0.16628000  1
  N  N33  1  0.34552000  0.02135000  0.50000000  1
  N  N34  1  0.87742000  0.11053000  0.83372000  1
  N  N35  1  0.65448000  0.02135000  0.00000000  1
  N  N36  1  0.65448000  0.97865000  0.50000000  1
  N  N37  1  0.63566000  0.77001000  0.16632000  1
  N  N38  1  0.63566000  0.22999000  0.66632000  1
  N  N39  1  0.36434000  0.22999000  0.83368000  1
