# generated using pymatgen
data_KGd(CO3)2
_symmetry_space_group_name_H-M   'P 1'
_cell_length_a   8.57536400
_cell_length_b   9.76648600
_cell_length_c   7.12025637
_cell_angle_alpha   90.00000000
_cell_angle_beta   110.72551188
_cell_angle_gamma   90.00000000
_symmetry_Int_Tables_number   1
_chemical_formula_structural   KGd(CO3)2
_chemical_formula_sum   'K4 Gd4 C8 O24'
_cell_volume   557.73925791
_cell_formula_units_Z   4
loop_
 _symmetry_equiv_pos_site_id
 _symmetry_equiv_pos_as_xyz
  1  'x, y, z'
loop_
 _atom_site_type_symbol
 _atom_site_label
 _atom_site_symmetry_multiplicity
 _atom_site_fract_x
 _atom_site_fract_y
 _atom_site_fract_z
 _atom_site_occupancy
  K  K0  1  0.50000000  0.62196400  0.25000000  1
  K  K1  1  0.50000000  0.37803600  0.75000000  1
  K  K2  1  0.00000000  0.12196400  0.25000000  1
  K  K3  1  0.00000000  0.87803600  0.75000000  1
  Gd  Gd4  1  0.50000000  0.09520700  0.25000000  1
  Gd  Gd5  1  0.50000000  0.90479300  0.75000000  1
  Gd  Gd6  1  0.00000000  0.59520700  0.25000000  1
  Gd  Gd7  1  0.00000000  0.40479300  0.75000000  1
  C  C8  1  0.73159950  0.12431250  0.75351000  1
  C  C9  1  0.26840050  0.12431250  0.74649000  1
  C  C10  1  0.26840050  0.87568750  0.24649000  1
  C  C11  1  0.73159950  0.87568750  0.25351000  1
  C  C12  1  0.23159950  0.62431250  0.75351000  1
  C  C13  1  0.76840050  0.62431250  0.74649000  1
  C  C14  1  0.76840050  0.37568750  0.24649000  1
  C  C15  1  0.23159950  0.37568750  0.25351000  1
  O  O16  1  0.32497550  0.27059150  0.27433900  1
  O  O17  1  0.67502450  0.27059150  0.22566100  1
  O  O18  1  0.67502450  0.72940850  0.72566100  1
  O  O19  1  0.32497550  0.72940850  0.77433900  1
  O  O20  1  0.77008150  0.97735150  0.37827400  1
  O  O21  1  0.22991850  0.97735150  0.12172600  1
  O  O22  1  0.22991850  0.02264850  0.62172600  1
  O  O23  1  0.77008150  0.02264850  0.87827400  1
  O  O24  1  0.58607050  0.88341950  0.10549500  1
  O  O25  1  0.41392950  0.88341950  0.39450500  1
  O  O26  1  0.41392950  0.11658050  0.89450500  1
  O  O27  1  0.58607050  0.11658050  0.60549500  1
  O  O28  1  0.82497550  0.77059150  0.27433900  1
  O  O29  1  0.17502450  0.77059150  0.22566100  1
  O  O30  1  0.17502450  0.22940850  0.72566100  1
  O  O31  1  0.82497550  0.22940850  0.77433900  1
  O  O32  1  0.27008150  0.47735150  0.37827400  1
  O  O33  1  0.72991850  0.47735150  0.12172600  1
  O  O34  1  0.72991850  0.52264850  0.62172600  1
  O  O35  1  0.27008150  0.52264850  0.87827400  1
  O  O36  1  0.08607050  0.38341950  0.10549500  1
  O  O37  1  0.91392950  0.38341950  0.39450500  1
  O  O38  1  0.91392950  0.61658050  0.89450500  1
  O  O39  1  0.08607050  0.61658050  0.60549500  1
