# generated using pymatgen
data_BaY2PdO5
_symmetry_space_group_name_H-M   'P 1'
_cell_length_a   6.59917300
_cell_length_b   6.59917300
_cell_length_c   5.93197400
_cell_angle_alpha   90.00000000
_cell_angle_beta   90.00000000
_cell_angle_gamma   90.00000000
_symmetry_Int_Tables_number   1
_chemical_formula_structural   BaY2PdO5
_chemical_formula_sum   'Ba2 Y4 Pd2 O10'
_cell_volume   258.33203570
_cell_formula_units_Z   2
loop_
 _symmetry_equiv_pos_site_id
 _symmetry_equiv_pos_as_xyz
  1  'x, y, z'
loop_
 _atom_site_type_symbol
 _atom_site_label
 _atom_site_symmetry_multiplicity
 _atom_site_fract_x
 _atom_site_fract_y
 _atom_site_fract_z
 _atom_site_occupancy
  Ba  Ba0  1  0.50000000  0.50000000  0.00000000  1
  Ba  Ba1  1  0.00000000  0.00000000  0.00000000  1
  Y  Y2  1  0.82608300  0.67391700  0.50000000  1
  Y  Y3  1  0.32608300  0.82608300  0.50000000  1
  Y  Y4  1  0.67391700  0.17391700  0.50000000  1
  Y  Y5  1  0.17391700  0.32608300  0.50000000  1
  Pd  Pd6  1  0.00000000  0.50000000  0.00000000  1
  Pd  Pd7  1  0.50000000  0.00000000  0.00000000  1
  O  O8  1  0.50000000  0.50000000  0.50000000  1
  O  O9  1  0.00000000  0.00000000  0.50000000  1
  O  O10  1  0.35979500  0.14020500  0.74014300  1
  O  O11  1  0.64020500  0.85979500  0.74014300  1
  O  O12  1  0.14020500  0.64020500  0.74014300  1
  O  O13  1  0.85979500  0.35979500  0.74014300  1
  O  O14  1  0.64020500  0.85979500  0.25985700  1
  O  O15  1  0.14020500  0.64020500  0.25985700  1
  O  O16  1  0.35979500  0.14020500  0.25985700  1
  O  O17  1  0.85979500  0.35979500  0.25985700  1
