# generated using pymatgen
data_KCu3S2
_symmetry_space_group_name_H-M   'P 1'
_cell_length_a   14.58873200
_cell_length_b   3.89718000
_cell_length_c   8.29652547
_cell_angle_alpha   90.00000000
_cell_angle_beta   113.35766733
_cell_angle_gamma   90.00000000
_symmetry_Int_Tables_number   1
_chemical_formula_structural   KCu3S2
_chemical_formula_sum   'K4 Cu12 S8'
_cell_volume   433.04154034
_cell_formula_units_Z   4
loop_
 _symmetry_equiv_pos_site_id
 _symmetry_equiv_pos_as_xyz
  1  'x, y, z'
loop_
 _atom_site_type_symbol
 _atom_site_label
 _atom_site_symmetry_multiplicity
 _atom_site_fract_x
 _atom_site_fract_y
 _atom_site_fract_z
 _atom_site_occupancy
  K  K0  1  0.13515000  0.00000000  0.04429500  1
  K  K1  1  0.36485000  0.50000000  0.95570500  1
  K  K2  1  0.63515000  0.50000000  0.04429500  1
  K  K3  1  0.86485000  0.00000000  0.95570500  1
  Cu  Cu4  1  0.18955700  0.50000000  0.41767800  1
  Cu  Cu5  1  0.06397500  0.00000000  0.40912500  1
  Cu  Cu6  1  0.31044300  0.00000000  0.58232200  1
  Cu  Cu7  1  0.09389900  0.50000000  0.63972000  1
  Cu  Cu8  1  0.40610100  0.00000000  0.36028000  1
  Cu  Cu9  1  0.43602500  0.50000000  0.59087500  1
  Cu  Cu10  1  0.68955700  0.00000000  0.41767800  1
  Cu  Cu11  1  0.56397500  0.50000000  0.40912500  1
  Cu  Cu12  1  0.81044300  0.50000000  0.58232200  1
  Cu  Cu13  1  0.59389900  0.00000000  0.63972000  1
  Cu  Cu14  1  0.90610100  0.50000000  0.36028000  1
  Cu  Cu15  1  0.93602500  0.00000000  0.59087500  1
  S  S16  1  0.02186600  0.50000000  0.23831200  1
  S  S17  1  0.30712800  0.50000000  0.30892700  1
  S  S18  1  0.19287200  0.00000000  0.69107300  1
  S  S19  1  0.47813400  0.00000000  0.76168800  1
  S  S20  1  0.52186600  0.00000000  0.23831200  1
  S  S21  1  0.80712800  0.00000000  0.30892700  1
  S  S22  1  0.69287200  0.50000000  0.69107300  1
  S  S23  1  0.97813400  0.50000000  0.76168800  1
