# generated using pymatgen
data_LaCrN3
_symmetry_space_group_name_H-M   'P 1'
_cell_length_a   10.24188400
_cell_length_b   10.19871600
_cell_length_c   6.01210995
_cell_angle_alpha   90.00000000
_cell_angle_beta   106.76600749
_cell_angle_gamma   90.00000000
_symmetry_Int_Tables_number   1
_chemical_formula_structural   LaCrN3
_chemical_formula_sum   'La8 Cr8 N24'
_cell_volume   601.29401036
_cell_formula_units_Z   8
loop_
 _symmetry_equiv_pos_site_id
 _symmetry_equiv_pos_as_xyz
  1  'x, y, z'
loop_
 _atom_site_type_symbol
 _atom_site_label
 _atom_site_symmetry_multiplicity
 _atom_site_fract_x
 _atom_site_fract_y
 _atom_site_fract_z
 _atom_site_occupancy
  La  La0  1  0.00000000  0.66554600  0.75000000  1
  La  La1  1  0.00000000  0.33445400  0.25000000  1
  La  La2  1  0.00000000  0.90328600  0.25000000  1
  La  La3  1  0.00000000  0.09671400  0.75000000  1
  La  La4  1  0.50000000  0.16554600  0.75000000  1
  La  La5  1  0.50000000  0.83445400  0.25000000  1
  La  La6  1  0.50000000  0.40328600  0.25000000  1
  La  La7  1  0.50000000  0.59671400  0.75000000  1
  Cr  Cr8  1  0.21340850  0.41347650  0.75683500  1
  Cr  Cr9  1  0.78659150  0.58652350  0.24316500  1
  Cr  Cr10  1  0.78659150  0.41347650  0.74316500  1
  Cr  Cr11  1  0.21340850  0.58652350  0.25683500  1
  Cr  Cr12  1  0.71340850  0.91347650  0.75683500  1
  Cr  Cr13  1  0.28659150  0.08652350  0.24316500  1
  Cr  Cr14  1  0.28659150  0.91347650  0.74316500  1
  Cr  Cr15  1  0.71340850  0.08652350  0.25683500  1
  N  N16  1  0.61587400  0.38580900  0.66069300  1
  N  N17  1  0.86818700  0.27603400  0.84309400  1
  N  N18  1  0.61587400  0.61419100  0.16069300  1
  N  N19  1  0.13181300  0.72396600  0.15690600  1
  N  N20  1  0.38412600  0.61419100  0.33930700  1
  N  N21  1  0.38412600  0.38580900  0.83930700  1
  N  N22  1  0.13181300  0.27603400  0.65690600  1
  N  N23  1  0.83875450  0.52118250  0.99107800  1
  N  N24  1  0.16124550  0.47881750  0.00892200  1
  N  N25  1  0.86818700  0.72396600  0.34309400  1
  N  N26  1  0.83875450  0.47881750  0.49107800  1
  N  N27  1  0.16124550  0.52118250  0.50892200  1
  N  N28  1  0.11587400  0.88580900  0.66069300  1
  N  N29  1  0.36818700  0.77603400  0.84309400  1
  N  N30  1  0.11587400  0.11419100  0.16069300  1
  N  N31  1  0.63181300  0.22396600  0.15690600  1
  N  N32  1  0.88412600  0.11419100  0.33930700  1
  N  N33  1  0.88412600  0.88580900  0.83930700  1
  N  N34  1  0.63181300  0.77603400  0.65690600  1
  N  N35  1  0.33875450  0.02118250  0.99107800  1
  N  N36  1  0.66124550  0.97881750  0.00892200  1
  N  N37  1  0.36818700  0.22396600  0.34309400  1
  N  N38  1  0.33875450  0.97881750  0.49107800  1
  N  N39  1  0.66124550  0.02118250  0.50892200  1
