# generated using pymatgen
data_Hg2H6CN3Cl5
_symmetry_space_group_name_H-M   'P 1'
_cell_length_a   4.08029000
_cell_length_b   15.63148400
_cell_length_c   18.54015100
_cell_angle_alpha   90.00000000
_cell_angle_beta   90.00000000
_cell_angle_gamma   90.00000000
_symmetry_Int_Tables_number   1
_chemical_formula_structural   Hg2H6CN3Cl5
_chemical_formula_sum   'Hg8 H24 C4 N12 Cl20'
_cell_volume   1182.50914567
_cell_formula_units_Z   4
loop_
 _symmetry_equiv_pos_site_id
 _symmetry_equiv_pos_as_xyz
  1  'x, y, z'
loop_
 _atom_site_type_symbol
 _atom_site_label
 _atom_site_symmetry_multiplicity
 _atom_site_fract_x
 _atom_site_fract_y
 _atom_site_fract_z
 _atom_site_occupancy
  Hg  Hg0  1  0.35329550  0.36617550  0.46234000  1
  Hg  Hg1  1  0.14670450  0.13382450  0.96234000  1
  Hg  Hg2  1  0.85329550  0.13382450  0.53766000  1
  Hg  Hg3  1  0.64670450  0.36617550  0.03766000  1
  Hg  Hg4  1  0.85329550  0.86617550  0.46234000  1
  Hg  Hg5  1  0.64670450  0.63382450  0.96234000  1
  Hg  Hg6  1  0.35329550  0.63382450  0.53766000  1
  Hg  Hg7  1  0.14670450  0.86617550  0.03766000  1
  H  H8  1  0.92118950  0.49241150  0.68682100  1
  H  H9  1  0.57881050  0.00758850  0.18682100  1
  H  H10  1  0.42118950  0.00758850  0.31317900  1
  H  H11  1  0.07881050  0.49241150  0.81317900  1
  H  H12  1  0.93144200  0.26606700  0.70615600  1
  H  H13  1  0.56855800  0.23393300  0.20615600  1
  H  H14  1  0.43144200  0.23393300  0.29384400  1
  H  H15  1  0.06855800  0.26606700  0.79384400  1
  H  H16  1  0.76302150  0.39797650  0.65259000  1
  H  H17  1  0.73697850  0.10202350  0.15259000  1
  H  H18  1  0.26302150  0.10202350  0.34741000  1
  H  H19  1  0.23697850  0.39797650  0.84741000  1
  H  H20  1  0.42118950  0.99241150  0.68682100  1
  H  H21  1  0.07881050  0.50758850  0.18682100  1
  H  H22  1  0.92118950  0.50758850  0.31317900  1
  H  H23  1  0.57881050  0.99241150  0.81317900  1
  H  H24  1  0.43144200  0.76606700  0.70615600  1
  H  H25  1  0.06855800  0.73393300  0.20615600  1
  H  H26  1  0.93144200  0.73393300  0.29384400  1
  H  H27  1  0.56855800  0.76606700  0.79384400  1
  H  H28  1  0.26302150  0.89797650  0.65259000  1
  H  H29  1  0.23697850  0.60202350  0.15259000  1
  H  H30  1  0.76302150  0.60202350  0.34741000  1
  H  H31  1  0.73697850  0.89797650  0.84741000  1
  C  C32  1  0.00000000  0.38648000  0.75000000  1
  C  C33  1  0.50000000  0.11352000  0.25000000  1
  C  C34  1  0.50000000  0.88648000  0.75000000  1
  C  C35  1  0.00000000  0.61352000  0.25000000  1
  N  N36  1  0.00000000  0.30070600  0.75000000  1
  N  N37  1  0.50000000  0.19929400  0.25000000  1
  N  N38  1  0.86976100  0.42931900  0.69439800  1
  N  N39  1  0.63023900  0.07068100  0.19439800  1
  N  N40  1  0.36976100  0.07068100  0.30560200  1
  N  N41  1  0.13023900  0.42931900  0.80560200  1
  N  N42  1  0.50000000  0.80070600  0.75000000  1
  N  N43  1  0.00000000  0.69929400  0.25000000  1
  N  N44  1  0.36976100  0.92931900  0.69439800  1
  N  N45  1  0.13023900  0.57068100  0.19439800  1
  N  N46  1  0.86976100  0.57068100  0.30560200  1
  N  N47  1  0.63023900  0.92931900  0.80560200  1
  Cl  Cl48  1  0.35571200  0.00000000  0.50000000  1
  Cl  Cl49  1  0.64428800  0.00000000  0.00000000  1
  Cl  Cl50  1  0.38247200  0.30077400  0.57803700  1
  Cl  Cl51  1  0.11752800  0.19922600  0.07803700  1
  Cl  Cl52  1  0.88247200  0.19922600  0.42196300  1
  Cl  Cl53  1  0.61752800  0.30077400  0.92196300  1
  Cl  Cl54  1  0.33360550  0.38826750  0.33650400  1
  Cl  Cl55  1  0.16639450  0.11173250  0.83650400  1
  Cl  Cl56  1  0.83360550  0.11173250  0.66349600  1
  Cl  Cl57  1  0.66639450  0.38826750  0.16349600  1
  Cl  Cl58  1  0.85571200  0.50000000  0.50000000  1
  Cl  Cl59  1  0.14428800  0.50000000  0.00000000  1
  Cl  Cl60  1  0.88247200  0.80077400  0.57803700  1
  Cl  Cl61  1  0.61752800  0.69922600  0.07803700  1
  Cl  Cl62  1  0.38247200  0.69922600  0.42196300  1
  Cl  Cl63  1  0.11752800  0.80077400  0.92196300  1
  Cl  Cl64  1  0.83360550  0.88826750  0.33650400  1
  Cl  Cl65  1  0.66639450  0.61173250  0.83650400  1
  Cl  Cl66  1  0.33360550  0.61173250  0.66349600  1
  Cl  Cl67  1  0.16639450  0.88826750  0.16349600  1
