# generated using pymatgen
data_PrBN2
_symmetry_space_group_name_H-M   'P 1'
_cell_length_a   12.23477726
_cell_length_b   12.23477726
_cell_length_c   7.07075110
_cell_angle_alpha   90.00000000
_cell_angle_beta   90.00000000
_cell_angle_gamma   120.00000000
_symmetry_Int_Tables_number   1
_chemical_formula_structural   PrBN2
_chemical_formula_sum   'Pr18 B18 N36'
_cell_volume   916.61786281
_cell_formula_units_Z   18
loop_
 _symmetry_equiv_pos_site_id
 _symmetry_equiv_pos_as_xyz
  1  'x, y, z'
loop_
 _atom_site_type_symbol
 _atom_site_label
 _atom_site_symmetry_multiplicity
 _atom_site_fract_x
 _atom_site_fract_y
 _atom_site_fract_z
 _atom_site_occupancy
  Pr  Pr0  1  0.45438300  0.00000000  0.25000000  1
  Pr  Pr1  1  0.33333333  0.12104967  0.91666667  1
  Pr  Pr2  1  0.21228367  0.87895033  0.58333333  1
  Pr  Pr3  1  0.21228367  0.33333333  0.08333333  1
  Pr  Pr4  1  0.33333333  0.21228367  0.41666667  1
  Pr  Pr5  1  0.45438300  0.45438300  0.75000000  1
  Pr  Pr6  1  0.12104967  0.33333333  0.58333333  1
  Pr  Pr7  1  0.00000000  0.45438300  0.25000000  1
  Pr  Pr8  1  0.87895033  0.21228367  0.91666667  1
  Pr  Pr9  1  0.87895033  0.66666667  0.41666667  1
  Pr  Pr10  1  0.00000000  0.54561700  0.75000000  1
  Pr  Pr11  1  0.12104967  0.78771633  0.08333333  1
  Pr  Pr12  1  0.78771633  0.66666667  0.91666667  1
  Pr  Pr13  1  0.66666667  0.78771633  0.58333333  1
  Pr  Pr14  1  0.54561700  0.54561700  0.25000000  1
  Pr  Pr15  1  0.54561700  0.00000000  0.75000000  1
  Pr  Pr16  1  0.66666667  0.87895033  0.08333333  1
  Pr  Pr17  1  0.78771633  0.12104967  0.41666667  1
  B  B18  1  0.54763167  0.33333333  0.08333333  1
  B  B19  1  0.11903500  0.00000000  0.25000000  1
  B  B20  1  0.33333333  0.78570167  0.91666667  1
  B  B21  1  0.54763167  0.21429833  0.58333333  1
  B  B22  1  0.33333333  0.54763167  0.41666667  1
  B  B23  1  0.11903500  0.11903500  0.75000000  1
  B  B24  1  0.21429833  0.66666667  0.41666667  1
  B  B25  1  0.78570167  0.33333333  0.58333333  1
  B  B26  1  0.00000000  0.11903500  0.25000000  1
  B  B27  1  0.21429833  0.54763167  0.91666667  1
  B  B28  1  0.00000000  0.88096500  0.75000000  1
  B  B29  1  0.78570167  0.45236833  0.08333333  1
  B  B30  1  0.88096500  0.00000000  0.75000000  1
  B  B31  1  0.45236833  0.66666667  0.91666667  1
  B  B32  1  0.66666667  0.45236833  0.58333333  1
  B  B33  1  0.88096500  0.88096500  0.25000000  1
  B  B34  1  0.66666667  0.21429833  0.08333333  1
  B  B35  1  0.45236833  0.78570167  0.41666667  1
  N  N36  1  0.24046800  0.24046800  0.75000000  1
  N  N37  1  0.33333333  0.42619867  0.41666667  1
  N  N38  1  0.24046800  0.00000000  0.25000000  1
  N  N39  1  0.42619867  0.33333333  0.08333333  1
  N  N40  1  0.42619867  0.09286533  0.58333333  1
  N  N41  1  0.33333333  0.90713467  0.91666667  1
  N  N42  1  0.54501267  0.21167933  0.08333333  1
  N  N43  1  0.33333333  0.78832067  0.41666667  1
  N  N44  1  0.12165400  0.00000000  0.75000000  1
  N  N45  1  0.12165400  0.12165400  0.25000000  1
  N  N46  1  0.33333333  0.54501267  0.91666667  1
  N  N47  1  0.54501267  0.33333333  0.58333333  1
  N  N48  1  0.90713467  0.57380133  0.08333333  1
  N  N49  1  0.00000000  0.75953200  0.75000000  1
  N  N50  1  0.90713467  0.33333333  0.58333333  1
  N  N51  1  0.09286533  0.66666667  0.41666667  1
  N  N52  1  0.09286533  0.42619867  0.91666667  1
  N  N53  1  0.00000000  0.24046800  0.25000000  1
  N  N54  1  0.21167933  0.54501267  0.41666667  1
  N  N55  1  0.00000000  0.12165400  0.75000000  1
  N  N56  1  0.78832067  0.33333333  0.08333333  1
  N  N57  1  0.78832067  0.45498733  0.58333333  1
  N  N58  1  0.00000000  0.87834600  0.25000000  1
  N  N59  1  0.21167933  0.66666667  0.91666667  1
  N  N60  1  0.57380133  0.90713467  0.41666667  1
  N  N61  1  0.66666667  0.09286533  0.08333333  1
  N  N62  1  0.57380133  0.66666667  0.91666667  1
  N  N63  1  0.75953200  0.00000000  0.75000000  1
  N  N64  1  0.75953200  0.75953200  0.25000000  1
  N  N65  1  0.66666667  0.57380133  0.58333333  1
  N  N66  1  0.87834600  0.87834600  0.75000000  1
  N  N67  1  0.66666667  0.45498733  0.08333333  1
  N  N68  1  0.45498733  0.66666667  0.41666667  1
  N  N69  1  0.45498733  0.78832067  0.91666667  1
  N  N70  1  0.66666667  0.21167933  0.58333333  1
  N  N71  1  0.87834600  0.00000000  0.25000000  1
