# generated using pymatgen
data_As2Se3
_symmetry_space_group_name_H-M   'P 1'
_cell_length_a   4.50495800
_cell_length_b   10.96764900
_cell_length_c   12.91540262
_cell_angle_alpha   90.00000000
_cell_angle_beta   110.01464573
_cell_angle_gamma   90.00000000
_symmetry_Int_Tables_number   1
_chemical_formula_structural   As2Se3
_chemical_formula_sum   'As8 Se12'
_cell_volume   599.59449092
_cell_formula_units_Z   4
loop_
 _symmetry_equiv_pos_site_id
 _symmetry_equiv_pos_as_xyz
  1  'x, y, z'
loop_
 _atom_site_type_symbol
 _atom_site_label
 _atom_site_symmetry_multiplicity
 _atom_site_fract_x
 _atom_site_fract_y
 _atom_site_fract_z
 _atom_site_occupancy
  As  As0  1  0.37772300  0.19512200  0.26309300  1
  As  As1  1  0.62227700  0.69512200  0.23690700  1
  As  As2  1  0.62227700  0.80487800  0.73690700  1
  As  As3  1  0.37772300  0.30487800  0.76309300  1
  As  As4  1  0.10213700  0.31793800  0.48335500  1
  As  As5  1  0.89786300  0.81793800  0.01664500  1
  As  As6  1  0.89786300  0.68206200  0.51664500  1
  As  As7  1  0.10213700  0.18206200  0.98335500  1
  Se  Se8  1  0.87324200  0.12625400  0.40239900  1
  Se  Se9  1  0.12675800  0.62625400  0.09760100  1
  Se  Se10  1  0.12675800  0.87374600  0.59760100  1
  Se  Se11  1  0.87324200  0.37374600  0.90239900  1
  Se  Se12  1  0.31314800  0.39038300  0.34146600  1
  Se  Se13  1  0.68685200  0.89038300  0.15853400  1
  Se  Se14  1  0.68685200  0.60961700  0.65853400  1
  Se  Se15  1  0.31314800  0.10961700  0.84146600  1
  Se  Se16  1  0.55127400  0.28814000  0.11954300  1
  Se  Se17  1  0.44872600  0.78814000  0.38045700  1
  Se  Se18  1  0.44872600  0.71186000  0.88045700  1
  Se  Se19  1  0.55127400  0.21186000  0.61954300  1
