# generated using pymatgen
data_K2NbCuS4
_symmetry_space_group_name_H-M   'P 1'
_cell_length_a   5.58222600
_cell_length_b   13.36459200
_cell_length_c   23.47972000
_cell_angle_alpha   90.00000000
_cell_angle_beta   90.00000000
_cell_angle_gamma   90.00000000
_symmetry_Int_Tables_number   1
_chemical_formula_structural   K2NbCuS4
_chemical_formula_sum   'K16 Nb8 Cu8 S32'
_cell_volume   1751.68509150
_cell_formula_units_Z   8
loop_
 _symmetry_equiv_pos_site_id
 _symmetry_equiv_pos_as_xyz
  1  'x, y, z'
loop_
 _atom_site_type_symbol
 _atom_site_label
 _atom_site_symmetry_multiplicity
 _atom_site_fract_x
 _atom_site_fract_y
 _atom_site_fract_z
 _atom_site_occupancy
  K  K0  1  0.00000000  0.00000000  0.67852200  1
  K  K1  1  0.50000000  0.00000000  0.82147800  1
  K  K2  1  0.75000000  0.75000000  0.57147800  1
  K  K3  1  0.75000000  0.75000000  0.92852200  1
  K  K4  1  0.00000000  0.50000000  0.17852200  1
  K  K5  1  0.50000000  0.50000000  0.32147800  1
  K  K6  1  0.75000000  0.25000000  0.07147800  1
  K  K7  1  0.75000000  0.25000000  0.42852200  1
  K  K8  1  0.50000000  0.00000000  0.17852200  1
  K  K9  1  0.00000000  0.00000000  0.32147800  1
  K  K10  1  0.25000000  0.75000000  0.07147800  1
  K  K11  1  0.25000000  0.75000000  0.42852200  1
  K  K12  1  0.50000000  0.50000000  0.67852200  1
  K  K13  1  0.00000000  0.50000000  0.82147800  1
  K  K14  1  0.25000000  0.25000000  0.57147800  1
  K  K15  1  0.25000000  0.25000000  0.92852200  1
  Nb  Nb16  1  0.50000000  0.00000000  0.00000000  1
  Nb  Nb17  1  0.75000000  0.75000000  0.75000000  1
  Nb  Nb18  1  0.50000000  0.50000000  0.50000000  1
  Nb  Nb19  1  0.75000000  0.25000000  0.25000000  1
  Nb  Nb20  1  0.00000000  0.00000000  0.50000000  1
  Nb  Nb21  1  0.25000000  0.75000000  0.25000000  1
  Nb  Nb22  1  0.00000000  0.50000000  0.00000000  1
  Nb  Nb23  1  0.25000000  0.25000000  0.75000000  1
  Cu  Cu24  1  0.00000000  0.00000000  0.00000000  1
  Cu  Cu25  1  0.25000000  0.75000000  0.75000000  1
  Cu  Cu26  1  0.00000000  0.50000000  0.50000000  1
  Cu  Cu27  1  0.25000000  0.25000000  0.25000000  1
  Cu  Cu28  1  0.50000000  0.00000000  0.50000000  1
  Cu  Cu29  1  0.75000000  0.75000000  0.25000000  1
  Cu  Cu30  1  0.50000000  0.50000000  0.00000000  1
  Cu  Cu31  1  0.75000000  0.25000000  0.75000000  1
  S  S32  1  0.25613850  0.59955750  0.55530400  1
  S  S33  1  0.25613850  0.90044250  0.94469600  1
  S  S34  1  0.50613850  0.65044250  0.80530400  1
  S  S35  1  0.50613850  0.84955750  0.69469600  1
  S  S36  1  0.99386150  0.65044250  0.69469600  1
  S  S37  1  0.99386150  0.84955750  0.80530400  1
  S  S38  1  0.24386150  0.59955750  0.94469600  1
  S  S39  1  0.24386150  0.90044250  0.55530400  1
  S  S40  1  0.25613850  0.09955750  0.05530400  1
  S  S41  1  0.25613850  0.40044250  0.44469600  1
  S  S42  1  0.50613850  0.15044250  0.30530400  1
  S  S43  1  0.50613850  0.34955750  0.19469600  1
  S  S44  1  0.99386150  0.15044250  0.19469600  1
  S  S45  1  0.99386150  0.34955750  0.30530400  1
  S  S46  1  0.24386150  0.09955750  0.44469600  1
  S  S47  1  0.24386150  0.40044250  0.05530400  1
  S  S48  1  0.75613850  0.59955750  0.05530400  1
  S  S49  1  0.75613850  0.90044250  0.44469600  1
  S  S50  1  0.00613850  0.65044250  0.30530400  1
  S  S51  1  0.00613850  0.84955750  0.19469600  1
  S  S52  1  0.49386150  0.65044250  0.19469600  1
  S  S53  1  0.49386150  0.84955750  0.30530400  1
  S  S54  1  0.74386150  0.59955750  0.44469600  1
  S  S55  1  0.74386150  0.90044250  0.05530400  1
  S  S56  1  0.75613850  0.09955750  0.55530400  1
  S  S57  1  0.75613850  0.40044250  0.94469600  1
  S  S58  1  0.00613850  0.15044250  0.80530400  1
  S  S59  1  0.00613850  0.34955750  0.69469600  1
  S  S60  1  0.49386150  0.15044250  0.69469600  1
  S  S61  1  0.49386150  0.34955750  0.80530400  1
  S  S62  1  0.74386150  0.09955750  0.94469600  1
  S  S63  1  0.74386150  0.40044250  0.55530400  1
