# generated using pymatgen
data_Zn3N2
_symmetry_space_group_name_H-M   'P 1'
_cell_length_a   9.85946200
_cell_length_b   9.85946200
_cell_length_c   9.85946200
_cell_angle_alpha   90.00000000
_cell_angle_beta   90.00000000
_cell_angle_gamma   90.00000000
_symmetry_Int_Tables_number   1
_chemical_formula_structural   Zn3N2
_chemical_formula_sum   'Zn48 N32'
_cell_volume   958.42835213
_cell_formula_units_Z   16
loop_
 _symmetry_equiv_pos_site_id
 _symmetry_equiv_pos_as_xyz
  1  'x, y, z'
loop_
 _atom_site_type_symbol
 _atom_site_label
 _atom_site_symmetry_multiplicity
 _atom_site_fract_x
 _atom_site_fract_y
 _atom_site_fract_z
 _atom_site_occupancy
  Zn  Zn0  1  0.89916500  0.14962300  0.12776700  1
  Zn  Zn1  1  0.87223300  0.39916500  0.35037700  1
  Zn  Zn2  1  0.60083500  0.14962300  0.87223300  1
  Zn  Zn3  1  0.10083500  0.35037700  0.12776700  1
  Zn  Zn4  1  0.12776700  0.10083500  0.35037700  1
  Zn  Zn5  1  0.14962300  0.12776700  0.89916500  1
  Zn  Zn6  1  0.35037700  0.87223300  0.39916500  1
  Zn  Zn7  1  0.14962300  0.87223300  0.60083500  1
  Zn  Zn8  1  0.87223300  0.60083500  0.14962300  1
  Zn  Zn9  1  0.39916500  0.35037700  0.87223300  1
  Zn  Zn10  1  0.12776700  0.89916500  0.14962300  1
  Zn  Zn11  1  0.35037700  0.12776700  0.10083500  1
  Zn  Zn12  1  0.35037700  0.62776700  0.89916500  1
  Zn  Zn13  1  0.14962300  0.62776700  0.10083500  1
  Zn  Zn14  1  0.35037700  0.37223300  0.60083500  1
  Zn  Zn15  1  0.37223300  0.39916500  0.14962300  1
  Zn  Zn16  1  0.39916500  0.14962300  0.37223300  1
  Zn  Zn17  1  0.89916500  0.35037700  0.62776700  1
  Zn  Zn18  1  0.62776700  0.10083500  0.14962300  1
  Zn  Zn19  1  0.60083500  0.35037700  0.37223300  1
  Zn  Zn20  1  0.62776700  0.89916500  0.35037700  1
  Zn  Zn21  1  0.10083500  0.14962300  0.62776700  1
  Zn  Zn22  1  0.37223300  0.60083500  0.35037700  1
  Zn  Zn23  1  0.14962300  0.37223300  0.39916500  1
  Zn  Zn24  1  0.39916500  0.64962300  0.62776700  1
  Zn  Zn25  1  0.37223300  0.89916500  0.85037700  1
  Zn  Zn26  1  0.10083500  0.64962300  0.37223300  1
  Zn  Zn27  1  0.60083500  0.85037700  0.62776700  1
  Zn  Zn28  1  0.62776700  0.60083500  0.85037700  1
  Zn  Zn29  1  0.64962300  0.62776700  0.39916500  1
  Zn  Zn30  1  0.85037700  0.37223300  0.89916500  1
  Zn  Zn31  1  0.64962300  0.37223300  0.10083500  1
  Zn  Zn32  1  0.37223300  0.10083500  0.64962300  1
  Zn  Zn33  1  0.89916500  0.85037700  0.37223300  1
  Zn  Zn34  1  0.62776700  0.39916500  0.64962300  1
  Zn  Zn35  1  0.85037700  0.62776700  0.60083500  1
  Zn  Zn36  1  0.85037700  0.12776700  0.39916500  1
  Zn  Zn37  1  0.64962300  0.12776700  0.60083500  1
  Zn  Zn38  1  0.85037700  0.87223300  0.10083500  1
  Zn  Zn39  1  0.87223300  0.89916500  0.64962300  1
  Zn  Zn40  1  0.89916500  0.64962300  0.87223300  1
  Zn  Zn41  1  0.39916500  0.85037700  0.12776700  1
  Zn  Zn42  1  0.12776700  0.60083500  0.64962300  1
  Zn  Zn43  1  0.10083500  0.85037700  0.87223300  1
  Zn  Zn44  1  0.12776700  0.39916500  0.85037700  1
  Zn  Zn45  1  0.60083500  0.64962300  0.12776700  1
  Zn  Zn46  1  0.87223300  0.10083500  0.85037700  1
  Zn  Zn47  1  0.64962300  0.87223300  0.89916500  1
  N  N48  1  0.00000000  0.25000000  0.48083200  1
  N  N49  1  0.01916800  0.00000000  0.75000000  1
  N  N50  1  0.75000000  0.01916800  0.00000000  1
  N  N51  1  0.48083200  0.00000000  0.25000000  1
  N  N52  1  0.25000000  0.48083200  0.00000000  1
  N  N53  1  0.00000000  0.75000000  0.01916800  1
  N  N54  1  0.50000000  0.25000000  0.01916800  1
  N  N55  1  0.48083200  0.50000000  0.75000000  1
  N  N56  1  0.75000000  0.48083200  0.50000000  1
  N  N57  1  0.01916800  0.50000000  0.25000000  1
  N  N58  1  0.25000000  0.01916800  0.50000000  1
  N  N59  1  0.50000000  0.75000000  0.48083200  1
  N  N60  1  0.75000000  0.25000000  0.25000000  1
  N  N61  1  0.25000000  0.25000000  0.75000000  1
  N  N62  1  0.25000000  0.75000000  0.25000000  1
  N  N63  1  0.25000000  0.25000000  0.25000000  1
  N  N64  1  0.50000000  0.75000000  0.98083200  1
  N  N65  1  0.51916800  0.50000000  0.25000000  1
  N  N66  1  0.25000000  0.51916800  0.50000000  1
  N  N67  1  0.98083200  0.50000000  0.75000000  1
  N  N68  1  0.75000000  0.98083200  0.50000000  1
  N  N69  1  0.50000000  0.25000000  0.51916800  1
  N  N70  1  0.00000000  0.75000000  0.51916800  1
  N  N71  1  0.98083200  0.00000000  0.25000000  1
  N  N72  1  0.25000000  0.98083200  0.00000000  1
  N  N73  1  0.51916800  0.00000000  0.75000000  1
  N  N74  1  0.75000000  0.51916800  0.00000000  1
  N  N75  1  0.00000000  0.25000000  0.98083200  1
  N  N76  1  0.25000000  0.75000000  0.75000000  1
  N  N77  1  0.75000000  0.75000000  0.25000000  1
  N  N78  1  0.75000000  0.25000000  0.75000000  1
  N  N79  1  0.75000000  0.75000000  0.75000000  1
