# generated using pymatgen
data_K2Dy4Cu4Se9
_symmetry_space_group_name_H-M   'P 1'
_cell_length_a   14.33132600
_cell_length_b   4.11488400
_cell_length_c   16.51981366
_cell_angle_alpha   90.00000000
_cell_angle_beta   109.37021467
_cell_angle_gamma   90.00000000
_symmetry_Int_Tables_number   1
_chemical_formula_structural   K2Dy4Cu4Se9
_chemical_formula_sum   'K4 Dy8 Cu8 Se18'
_cell_volume   919.05770623
_cell_formula_units_Z   2
loop_
 _symmetry_equiv_pos_site_id
 _symmetry_equiv_pos_as_xyz
  1  'x, y, z'
loop_
 _atom_site_type_symbol
 _atom_site_label
 _atom_site_symmetry_multiplicity
 _atom_site_fract_x
 _atom_site_fract_y
 _atom_site_fract_z
 _atom_site_occupancy
  K  K0  1  0.03271300  0.00000000  0.26940700  1
  K  K1  1  0.96728700  0.00000000  0.73059300  1
  K  K2  1  0.53271300  0.50000000  0.26940700  1
  K  K3  1  0.46728700  0.50000000  0.73059300  1
  Dy  Dy4  1  0.73181600  0.50000000  0.10315400  1
  Dy  Dy5  1  0.84496500  0.50000000  0.44373700  1
  Dy  Dy6  1  0.15503500  0.50000000  0.55626300  1
  Dy  Dy7  1  0.26818400  0.50000000  0.89684600  1
  Dy  Dy8  1  0.23181600  0.00000000  0.10315400  1
  Dy  Dy9  1  0.34496500  0.00000000  0.44373700  1
  Dy  Dy10  1  0.65503500  0.00000000  0.55626300  1
  Dy  Dy11  1  0.76818400  0.00000000  0.89684600  1
  Cu  Cu12  1  0.92436500  0.50000000  0.02865700  1
  Cu  Cu13  1  0.75979500  0.00000000  0.27135800  1
  Cu  Cu14  1  0.24020500  0.00000000  0.72864200  1
  Cu  Cu15  1  0.07563500  0.50000000  0.97134300  1
  Cu  Cu16  1  0.42436500  0.00000000  0.02865700  1
  Cu  Cu17  1  0.25979500  0.50000000  0.27135800  1
  Cu  Cu18  1  0.74020500  0.50000000  0.72864200  1
  Cu  Cu19  1  0.57563500  0.00000000  0.97134300  1
  Se  Se20  1  0.86481800  0.00000000  0.07796900  1
  Se  Se21  1  0.60706600  0.00000000  0.12970700  1
  Se  Se22  1  0.85566200  0.50000000  0.27713000  1
  Se  Se23  1  0.69857600  0.00000000  0.39569500  1
  Se  Se24  1  0.00000000  0.00000000  0.50000000  1
  Se  Se25  1  0.30142400  0.00000000  0.60430500  1
  Se  Se26  1  0.14433800  0.50000000  0.72287000  1
  Se  Se27  1  0.39293400  0.00000000  0.87029300  1
  Se  Se28  1  0.13518200  0.00000000  0.92203100  1
  Se  Se29  1  0.36481800  0.50000000  0.07796900  1
  Se  Se30  1  0.10706600  0.50000000  0.12970700  1
  Se  Se31  1  0.35566200  0.00000000  0.27713000  1
  Se  Se32  1  0.19857600  0.50000000  0.39569500  1
  Se  Se33  1  0.50000000  0.50000000  0.50000000  1
  Se  Se34  1  0.80142400  0.50000000  0.60430500  1
  Se  Se35  1  0.64433800  0.00000000  0.72287000  1
  Se  Se36  1  0.89293400  0.50000000  0.87029300  1
  Se  Se37  1  0.63518200  0.50000000  0.92203100  1
