# generated using pymatgen
data_HAuO2
_symmetry_space_group_name_H-M   'P 1'
_cell_length_a   4.15349000
_cell_length_b   4.72067031
_cell_length_c   5.49288995
_cell_angle_alpha   92.61219218
_cell_angle_beta   90.44398522
_cell_angle_gamma   114.99325762
_symmetry_Int_Tables_number   1
_chemical_formula_structural   HAuO2
_chemical_formula_sum   'H2 Au2 O4'
_cell_volume   97.47034488
_cell_formula_units_Z   2
loop_
 _symmetry_equiv_pos_site_id
 _symmetry_equiv_pos_as_xyz
  1  'x, y, z'
loop_
 _atom_site_type_symbol
 _atom_site_label
 _atom_site_symmetry_multiplicity
 _atom_site_fract_x
 _atom_site_fract_y
 _atom_site_fract_z
 _atom_site_occupancy
  H  H0  1  0.92697000  0.98079000  0.24863000  1
  H  H1  1  0.07303000  0.01921000  0.75137000  1
  Au  Au2  1  0.00000000  0.50000000  0.00000000  1
  Au  Au3  1  0.50000000  0.50000000  0.50000000  1
  O  O4  1  0.24156000  0.28037000  0.79706000  1
  O  O5  1  0.95307000  0.72318000  0.70471000  1
  O  O6  1  0.75844000  0.71963000  0.20294000  1
  O  O7  1  0.04693000  0.27682000  0.29529000  1
