# generated using pymatgen
data_InSnCl3
_symmetry_space_group_name_H-M   'P 1'
_cell_length_a   8.10177000
_cell_length_b   7.93324800
_cell_length_c   5.77651343
_cell_angle_alpha   90.00000000
_cell_angle_beta   91.90555426
_cell_angle_gamma   90.00000000
_symmetry_Int_Tables_number   1
_chemical_formula_structural   InSnCl3
_chemical_formula_sum   'In2 Sn2 Cl6'
_cell_volume   371.07055650
_cell_formula_units_Z   2
loop_
 _symmetry_equiv_pos_site_id
 _symmetry_equiv_pos_as_xyz
  1  'x, y, z'
loop_
 _atom_site_type_symbol
 _atom_site_label
 _atom_site_symmetry_multiplicity
 _atom_site_fract_x
 _atom_site_fract_y
 _atom_site_fract_z
 _atom_site_occupancy
  In  In0  1  0.41110100  0.50000000  0.91956400  1
  In  In1  1  0.91110100  0.00000000  0.91956400  1
  Sn  Sn2  1  0.01151600  0.50000000  0.53083900  1
  Sn  Sn3  1  0.51151600  0.00000000  0.53083900  1
  Cl  Cl4  1  0.26317450  0.72907550  0.55925300  1
  Cl  Cl5  1  0.04470200  0.50000000  0.98815700  1
  Cl  Cl6  1  0.26317450  0.27092450  0.55925300  1
  Cl  Cl7  1  0.76317450  0.22907550  0.55925300  1
  Cl  Cl8  1  0.54470200  0.00000000  0.98815700  1
  Cl  Cl9  1  0.76317450  0.77092450  0.55925300  1
