# generated using pymatgen
data_GeF4
_symmetry_space_group_name_H-M   'P 1'
_cell_length_a   5.65888600
_cell_length_b   5.65888600
_cell_length_c   5.65888600
_cell_angle_alpha   90.00000000
_cell_angle_beta   90.00000000
_cell_angle_gamma   90.00000000
_symmetry_Int_Tables_number   1
_chemical_formula_structural   GeF4
_chemical_formula_sum   'Ge2 F8'
_cell_volume   181.21445410
_cell_formula_units_Z   2
loop_
 _symmetry_equiv_pos_site_id
 _symmetry_equiv_pos_as_xyz
  1  'x, y, z'
loop_
 _atom_site_type_symbol
 _atom_site_label
 _atom_site_symmetry_multiplicity
 _atom_site_fract_x
 _atom_site_fract_y
 _atom_site_fract_z
 _atom_site_occupancy
  Ge  Ge0  1  0.00000000  0.00000000  0.00000000  1
  Ge  Ge1  1  0.50000000  0.50000000  0.50000000  1
  F  F2  1  0.32518550  0.67481450  0.32518550  1
  F  F3  1  0.17481450  0.17481450  0.17481450  1
  F  F4  1  0.32518550  0.32518550  0.67481450  1
  F  F5  1  0.67481450  0.32518550  0.32518550  1
  F  F6  1  0.82518550  0.17481450  0.82518550  1
  F  F7  1  0.67481450  0.67481450  0.67481450  1
  F  F8  1  0.82518550  0.82518550  0.17481450  1
  F  F9  1  0.17481450  0.82518550  0.82518550  1
