# generated using pymatgen
data_K2Fe2(SO4)3
_symmetry_space_group_name_H-M   'P 1'
_cell_length_a   10.14497000
_cell_length_b   10.14497000
_cell_length_c   10.14497000
_cell_angle_alpha   90.00000000
_cell_angle_beta   90.00000000
_cell_angle_gamma   90.00000000
_symmetry_Int_Tables_number   1
_chemical_formula_structural   K2Fe2(SO4)3
_chemical_formula_sum   'K8 Fe8 S12 O48'
_cell_volume   1044.12453576
_cell_formula_units_Z   4
loop_
 _symmetry_equiv_pos_site_id
 _symmetry_equiv_pos_as_xyz
  1  'x, y, z'
loop_
 _atom_site_type_symbol
 _atom_site_label
 _atom_site_symmetry_multiplicity
 _atom_site_fract_x
 _atom_site_fract_y
 _atom_site_fract_z
 _atom_site_occupancy
  K  K0  1  0.68469600  0.18469600  0.31530400  1
  K  K1  1  0.31530400  0.68469600  0.18469600  1
  K  K2  1  0.94919500  0.55080500  0.44919500  1
  K  K3  1  0.18469600  0.31530400  0.68469600  1
  K  K4  1  0.05080500  0.05080500  0.05080500  1
  K  K5  1  0.44919500  0.94919500  0.55080500  1
  K  K6  1  0.55080500  0.44919500  0.94919500  1
  K  K7  1  0.81530400  0.81530400  0.81530400  1
  Fe  Fe8  1  0.33519300  0.33519300  0.33519300  1
  Fe  Fe9  1  0.16480700  0.66480700  0.83519300  1
  Fe  Fe10  1  0.83519300  0.16480700  0.66480700  1
  Fe  Fe11  1  0.66480700  0.83519300  0.16480700  1
  Fe  Fe12  1  0.59385800  0.59385800  0.59385800  1
  Fe  Fe13  1  0.09385800  0.90614200  0.40614200  1
  Fe  Fe14  1  0.40614200  0.09385800  0.90614200  1
  Fe  Fe15  1  0.90614200  0.40614200  0.09385800  1
  S  S16  1  0.28089700  0.62339400  0.51895800  1
  S  S17  1  0.78089700  0.87660600  0.48104200  1
  S  S18  1  0.71910300  0.12339400  0.98104200  1
  S  S19  1  0.87660600  0.48104200  0.78089700  1
  S  S20  1  0.98104200  0.71910300  0.12339400  1
  S  S21  1  0.48104200  0.78089700  0.87660600  1
  S  S22  1  0.62339400  0.51895800  0.28089700  1
  S  S23  1  0.51895800  0.28089700  0.62339400  1
  S  S24  1  0.12339400  0.98104200  0.71910300  1
  S  S25  1  0.21910300  0.37660600  0.01895800  1
  S  S26  1  0.01895800  0.21910300  0.37660600  1
  S  S27  1  0.37660600  0.01895800  0.21910300  1
  O  O28  1  0.25206700  0.59447100  0.65920300  1
  O  O29  1  0.75206700  0.90552900  0.34079700  1
  O  O30  1  0.74793300  0.09447100  0.84079700  1
  O  O31  1  0.90552900  0.34079700  0.75206700  1
  O  O32  1  0.84079700  0.74793300  0.09447100  1
  O  O33  1  0.34079700  0.75206700  0.90552900  1
  O  O34  1  0.59447100  0.65920300  0.25206700  1
  O  O35  1  0.65920300  0.25206700  0.59447100  1
  O  O36  1  0.09447100  0.84079700  0.74793300  1
  O  O37  1  0.40552900  0.15920300  0.24793300  1
  O  O38  1  0.15920300  0.24793300  0.40552900  1
  O  O39  1  0.24793300  0.40552900  0.15920300  1
  O  O40  1  0.25901100  0.49983000  0.44227300  1
  O  O41  1  0.75901100  0.00017000  0.55772700  1
  O  O42  1  0.74098900  0.99983000  0.05772700  1
  O  O43  1  0.00017000  0.55772700  0.75901100  1
  O  O44  1  0.05772700  0.74098900  0.99983000  1
  O  O45  1  0.55772700  0.75901100  0.00017000  1
  O  O46  1  0.99638000  0.58039900  0.17106700  1
  O  O47  1  0.44227300  0.25901100  0.49983000  1
  O  O48  1  0.99983000  0.05772700  0.74098900  1
  O  O49  1  0.50017000  0.94227300  0.24098900  1
  O  O50  1  0.94227300  0.24098900  0.50017000  1
  O  O51  1  0.24098900  0.50017000  0.94227300  1
  O  O52  1  0.41960100  0.67106700  0.50362000  1
  O  O53  1  0.91960100  0.82893300  0.49638000  1
  O  O54  1  0.58039900  0.17106700  0.99638000  1
  O  O55  1  0.82893300  0.49638000  0.91960100  1
  O  O56  1  0.30967200  0.27575800  0.96384400  1
  O  O57  1  0.96384400  0.30967200  0.27575800  1
  O  O58  1  0.27575800  0.96384400  0.30967200  1
  O  O59  1  0.22424200  0.03615600  0.80967200  1
  O  O60  1  0.46384400  0.19032800  0.72424200  1
  O  O61  1  0.72424200  0.46384400  0.19032800  1
  O  O62  1  0.53615600  0.69032800  0.77575800  1
  O  O63  1  0.03615600  0.80967200  0.22424200  1
  O  O64  1  0.77575800  0.53615600  0.69032800  1
  O  O65  1  0.80967200  0.22424200  0.03615600  1
  O  O66  1  0.69032800  0.77575800  0.53615600  1
  O  O67  1  0.19032800  0.72424200  0.46384400  1
  O  O68  1  0.08039900  0.32893300  0.00362000  1
  O  O69  1  0.00362000  0.08039900  0.32893300  1
  O  O70  1  0.32893300  0.00362000  0.08039900  1
  O  O71  1  0.17106700  0.99638000  0.58039900  1
  O  O72  1  0.50362000  0.41960100  0.67106700  1
  O  O73  1  0.67106700  0.50362000  0.41960100  1
  O  O74  1  0.49638000  0.91960100  0.82893300  1
  O  O75  1  0.49983000  0.44227300  0.25901100  1
