# generated using pymatgen
data_RbCaI3
_symmetry_space_group_name_H-M   'P 1'
_cell_length_a   8.78662600
_cell_length_b   8.77829400
_cell_length_c   6.20769318
_cell_angle_alpha   90.00000000
_cell_angle_beta   90.05796317
_cell_angle_gamma   90.00000000
_symmetry_Int_Tables_number   1
_chemical_formula_structural   RbCaI3
_chemical_formula_sum   'Rb2 Ca2 I6'
_cell_volume   478.80897693
_cell_formula_units_Z   2
loop_
 _symmetry_equiv_pos_site_id
 _symmetry_equiv_pos_as_xyz
  1  'x, y, z'
loop_
 _atom_site_type_symbol
 _atom_site_label
 _atom_site_symmetry_multiplicity
 _atom_site_fract_x
 _atom_site_fract_y
 _atom_site_fract_z
 _atom_site_occupancy
  Rb  Rb0  1  0.99897700  0.00000000  0.99999900  1
  Rb  Rb1  1  0.49897700  0.50000000  0.99999900  1
  Ca  Ca2  1  0.49352300  0.00000000  0.51807000  1
  Ca  Ca3  1  0.99352300  0.50000000  0.51807000  1
  I  I4  1  0.74702200  0.25131800  0.51354500  1
  I  I5  1  0.50832100  0.00000000  0.01696800  1
  I  I6  1  0.74702200  0.74868200  0.51354500  1
  I  I7  1  0.24702200  0.75131800  0.51354500  1
  I  I8  1  0.00832100  0.50000000  0.01696800  1
  I  I9  1  0.24702200  0.24868200  0.51354500  1
