# generated using pymatgen
data_BaDy2PdO5
_symmetry_space_group_name_H-M   'P 1'
_cell_length_a   6.58143700
_cell_length_b   6.58143700
_cell_length_c   5.92385400
_cell_angle_alpha   90.00000000
_cell_angle_beta   90.00000000
_cell_angle_gamma   90.00000000
_symmetry_Int_Tables_number   1
_chemical_formula_structural   BaDy2PdO5
_chemical_formula_sum   'Ba2 Dy4 Pd2 O10'
_cell_volume   256.59359009
_cell_formula_units_Z   2
loop_
 _symmetry_equiv_pos_site_id
 _symmetry_equiv_pos_as_xyz
  1  'x, y, z'
loop_
 _atom_site_type_symbol
 _atom_site_label
 _atom_site_symmetry_multiplicity
 _atom_site_fract_x
 _atom_site_fract_y
 _atom_site_fract_z
 _atom_site_occupancy
  Ba  Ba0  1  0.50000000  0.50000000  0.00000000  1
  Ba  Ba1  1  0.00000000  0.00000000  0.00000000  1
  Dy  Dy2  1  0.67415200  0.82584800  0.50000000  1
  Dy  Dy3  1  0.17415200  0.67415200  0.50000000  1
  Dy  Dy4  1  0.82584800  0.32584800  0.50000000  1
  Dy  Dy5  1  0.32584800  0.17415200  0.50000000  1
  Pd  Pd6  1  0.50000000  0.00000000  0.00000000  1
  Pd  Pd7  1  0.00000000  0.50000000  0.00000000  1
  O  O8  1  0.50000000  0.50000000  0.50000000  1
  O  O9  1  0.00000000  0.00000000  0.50000000  1
  O  O10  1  0.64054500  0.14054500  0.26030400  1
  O  O11  1  0.35945500  0.85945500  0.26030400  1
  O  O12  1  0.14054500  0.35945500  0.26030400  1
  O  O13  1  0.85945500  0.64054500  0.26030400  1
  O  O14  1  0.64054500  0.14054500  0.73969600  1
  O  O15  1  0.85945500  0.64054500  0.73969600  1
  O  O16  1  0.35945500  0.85945500  0.73969600  1
  O  O17  1  0.14054500  0.35945500  0.73969600  1
