# generated using pymatgen
data_YWN3
_symmetry_space_group_name_H-M   'P 1'
_cell_length_a   3.46350000
_cell_length_b   13.25248800
_cell_length_c   6.07064000
_cell_angle_alpha   90.00000000
_cell_angle_beta   90.00000000
_cell_angle_gamma   90.00000000
_symmetry_Int_Tables_number   1
_chemical_formula_structural   YWN3
_chemical_formula_sum   'Y4 W4 N12'
_cell_volume   278.64232858
_cell_formula_units_Z   4
loop_
 _symmetry_equiv_pos_site_id
 _symmetry_equiv_pos_as_xyz
  1  'x, y, z'
loop_
 _atom_site_type_symbol
 _atom_site_label
 _atom_site_symmetry_multiplicity
 _atom_site_fract_x
 _atom_site_fract_y
 _atom_site_fract_z
 _atom_site_occupancy
  Y  Y0  1  0.50000000  0.81473000  0.25000000  1
  Y  Y1  1  0.00000000  0.68527000  0.75000000  1
  Y  Y2  1  0.00000000  0.31473000  0.25000000  1
  Y  Y3  1  0.50000000  0.18527000  0.75000000  1
  W  W4  1  0.00000000  0.92930000  0.75000000  1
  W  W5  1  0.50000000  0.57070000  0.25000000  1
  W  W6  1  0.50000000  0.42930000  0.75000000  1
  W  W7  1  0.00000000  0.07070000  0.25000000  1
  N  N8  1  0.00000000  0.83997000  0.98201000  1
  N  N9  1  0.50000000  0.66003000  0.48201000  1
  N  N10  1  0.50000000  0.99676000  0.75000000  1
  N  N11  1  0.50000000  0.66003000  0.01799000  1
  N  N12  1  0.00000000  0.83997000  0.51799000  1
  N  N13  1  0.00000000  0.50324000  0.25000000  1
  N  N14  1  0.50000000  0.33997000  0.98201000  1
  N  N15  1  0.00000000  0.16003000  0.48201000  1
  N  N16  1  0.00000000  0.49676000  0.75000000  1
  N  N17  1  0.00000000  0.16003000  0.01799000  1
  N  N18  1  0.50000000  0.33997000  0.51799000  1
  N  N19  1  0.50000000  0.00324000  0.25000000  1
