# generated using pymatgen
data_AgBrO2
_symmetry_space_group_name_H-M   'P 1'
_cell_length_a   5.01520000
_cell_length_b   21.51829000
_cell_length_c   3.61848418
_cell_angle_alpha   90.00000000
_cell_angle_beta   91.41676635
_cell_angle_gamma   90.00000000
_symmetry_Int_Tables_number   1
_chemical_formula_structural   AgBrO2
_chemical_formula_sum   'Ag4 Br4 O8'
_cell_volume   390.38210901
_cell_formula_units_Z   4
loop_
 _symmetry_equiv_pos_site_id
 _symmetry_equiv_pos_as_xyz
  1  'x, y, z'
loop_
 _atom_site_type_symbol
 _atom_site_label
 _atom_site_symmetry_multiplicity
 _atom_site_fract_x
 _atom_site_fract_y
 _atom_site_fract_z
 _atom_site_occupancy
  Ag  Ag0  1  0.25000000  0.75000000  0.00000000  1
  Ag  Ag1  1  0.75000000  0.75000000  0.50000000  1
  Ag  Ag2  1  0.75000000  0.25000000  0.00000000  1
  Ag  Ag3  1  0.25000000  0.25000000  0.50000000  1
  Br  Br4  1  0.00000000  0.65754000  0.25000000  1
  Br  Br5  1  0.50000000  0.84246000  0.75000000  1
  Br  Br6  1  0.50000000  0.15754000  0.25000000  1
  Br  Br7  1  0.00000000  0.34246000  0.75000000  1
  O  O8  1  0.62287000  0.53088000  0.75425000  1
  O  O9  1  0.87713000  0.96912000  0.24575000  1
  O  O10  1  0.37713000  0.53088000  0.74575000  1
  O  O11  1  0.12287000  0.96912000  0.25425000  1
  O  O12  1  0.12287000  0.03088000  0.75425000  1
  O  O13  1  0.37713000  0.46912000  0.24575000  1
  O  O14  1  0.87713000  0.03088000  0.74575000  1
  O  O15  1  0.62287000  0.46912000  0.25425000  1
