# generated using pymatgen
data_HCO
_symmetry_space_group_name_H-M   'P 1'
_cell_length_a   5.10491400
_cell_length_b   5.10918961
_cell_length_c   19.11063628
_cell_angle_alpha   84.40082624
_cell_angle_beta   84.52255721
_cell_angle_gamma   68.97821813
_symmetry_Int_Tables_number   1
_chemical_formula_structural   HCO
_chemical_formula_sum   'H14 C14 O14'
_cell_volume   462.06742228
_cell_formula_units_Z   14
loop_
 _symmetry_equiv_pos_site_id
 _symmetry_equiv_pos_as_xyz
  1  'x, y, z'
loop_
 _atom_site_type_symbol
 _atom_site_label
 _atom_site_symmetry_multiplicity
 _atom_site_fract_x
 _atom_site_fract_y
 _atom_site_fract_z
 _atom_site_occupancy
  H  H0  1  0.60366500  0.52731800  0.60097100  1
  H  H1  1  0.15193000  0.98621300  0.16904400  1
  H  H2  1  0.56635300  0.26305000  0.00432500  1
  H  H3  1  0.36815700  0.88933900  0.81802200  1
  H  H4  1  0.57557300  0.84339000  0.22386600  1
  H  H5  1  0.60653600  0.99585900  0.94585300  1
  H  H6  1  0.76859600  0.88912700  0.64559600  1
  H  H7  1  0.90753000  0.95403700  0.11187600  1
  H  H8  1  0.87091400  0.99322000  0.41527700  1
  H  H9  1  0.78424300  0.30121500  0.53288400  1
  H  H10  1  0.06147600  0.88010200  0.87033000  1
  H  H11  1  0.50284700  0.21356200  0.42463400  1
  H  H12  1  0.46116600  0.58982700  0.27626000  1
  H  H13  1  0.70770900  0.63477200  0.71034700  1
  C  C14  1  0.27502200  0.04564900  0.02568300  1
  C  C15  1  0.43496700  0.51444200  0.88525100  1
  C  C16  1  0.76762200  0.69490900  0.32245800  1
  C  C17  1  0.45403600  0.16747900  0.97466000  1
  C  C18  1  0.79295400  0.46538300  0.56459500  1
  C  C19  1  0.86773200  0.71870100  0.68500200  1
  C  C20  1  0.60932500  0.77726900  0.46811800  1
  C  C21  1  0.99161400  0.10081400  0.13179500  1
  C  C22  1  0.96800300  0.83865600  0.74277300  1
  C  C23  1  0.64588500  0.64724100  0.25775600  1
  C  C24  1  0.24879900  0.75505900  0.83909200  1
  C  C25  1  0.06850300  0.35495100  0.60155600  1
  C  C26  1  0.65315500  0.00198000  0.41458700  1
  C  C27  1  0.75830700  0.33839800  0.16662200  1
  O  O28  1  0.16673900  0.64274500  0.78096300  1
  O  O29  1  0.43752900  0.66478400  0.46490600  1
  O  O30  1  0.28383600  0.37830900  0.92558900  1
  O  O31  1  0.28699600  0.80225600  0.02698100  1
  O  O32  1  0.79976900  0.70576400  0.51797900  1
  O  O33  1  0.11767900  0.22878000  0.07364500  1
  O  O34  1  0.10209900  0.49644400  0.65447800  1
  O  O35  1  0.59669400  0.94652600  0.34581000  1
  O  O36  1  0.86526500  0.08582100  0.75500700  1
  O  O37  1  0.51771400  0.43886100  0.14905300  1
  O  O38  1  0.97451900  0.53549700  0.35048200  1
  O  O39  1  0.68693900  0.45814500  0.88843000  1
  O  O40  1  0.85344700  0.42343700  0.22131400  1
  O  O41  1  0.26486800  0.14470800  0.58451400  1
