# generated using pymatgen
data_Li6PS5I
_symmetry_space_group_name_H-M   'P 1'
_cell_length_a   10.35305000
_cell_length_b   10.35305000
_cell_length_c   10.35305000
_cell_angle_alpha   90.00000000
_cell_angle_beta   90.00000000
_cell_angle_gamma   90.00000000
_symmetry_Int_Tables_number   1
_chemical_formula_structural   Li6PS5I
_chemical_formula_sum   'Li24 P4 S20 I4'
_cell_volume   1109.69833475
_cell_formula_units_Z   4
loop_
 _symmetry_equiv_pos_site_id
 _symmetry_equiv_pos_as_xyz
  1  'x, y, z'
loop_
 _atom_site_type_symbol
 _atom_site_label
 _atom_site_symmetry_multiplicity
 _atom_site_fract_x
 _atom_site_fract_y
 _atom_site_fract_z
 _atom_site_occupancy
  Li  Li0  1  0.25000000  0.25000000  0.02328700  1
  Li  Li1  1  0.25000000  0.25000000  0.47671300  1
  Li  Li2  1  0.25000000  0.47671300  0.25000000  1
  Li  Li3  1  0.25000000  0.02328700  0.25000000  1
  Li  Li4  1  0.02328700  0.25000000  0.25000000  1
  Li  Li5  1  0.47671300  0.25000000  0.25000000  1
  Li  Li6  1  0.25000000  0.75000000  0.52328700  1
  Li  Li7  1  0.25000000  0.75000000  0.97671300  1
  Li  Li8  1  0.25000000  0.97671300  0.75000000  1
  Li  Li9  1  0.25000000  0.52328700  0.75000000  1
  Li  Li10  1  0.02328700  0.75000000  0.75000000  1
  Li  Li11  1  0.47671300  0.75000000  0.75000000  1
  Li  Li12  1  0.75000000  0.25000000  0.52328700  1
  Li  Li13  1  0.75000000  0.25000000  0.97671300  1
  Li  Li14  1  0.75000000  0.47671300  0.75000000  1
  Li  Li15  1  0.75000000  0.02328700  0.75000000  1
  Li  Li16  1  0.52328700  0.25000000  0.75000000  1
  Li  Li17  1  0.97671300  0.25000000  0.75000000  1
  Li  Li18  1  0.75000000  0.75000000  0.02328700  1
  Li  Li19  1  0.75000000  0.75000000  0.47671300  1
  Li  Li20  1  0.75000000  0.97671300  0.25000000  1
  Li  Li21  1  0.75000000  0.52328700  0.25000000  1
  Li  Li22  1  0.52328700  0.75000000  0.25000000  1
  Li  Li23  1  0.97671300  0.75000000  0.25000000  1
  P  P24  1  0.50000000  0.00000000  0.00000000  1
  P  P25  1  0.50000000  0.50000000  0.50000000  1
  P  P26  1  0.00000000  0.00000000  0.50000000  1
  P  P27  1  0.00000000  0.50000000  0.00000000  1
  S  S28  1  0.11480633  0.38519367  0.88519367  1
  S  S29  1  0.88519367  0.38519367  0.11480633  1
  S  S30  1  0.38519367  0.11480633  0.88519367  1
  S  S31  1  0.61480633  0.11480633  0.11480633  1
  S  S32  1  0.25000000  0.25000000  0.25000000  1
  S  S33  1  0.11480633  0.88519367  0.38519367  1
  S  S34  1  0.88519367  0.88519367  0.61480633  1
  S  S35  1  0.38519367  0.61480633  0.38519367  1
  S  S36  1  0.61480633  0.61480633  0.61480633  1
  S  S37  1  0.25000000  0.75000000  0.75000000  1
  S  S38  1  0.61480633  0.38519367  0.38519367  1
  S  S39  1  0.38519367  0.38519367  0.61480633  1
  S  S40  1  0.88519367  0.11480633  0.38519367  1
  S  S41  1  0.11480633  0.11480633  0.61480633  1
  S  S42  1  0.75000000  0.25000000  0.75000000  1
  S  S43  1  0.61480633  0.88519367  0.88519367  1
  S  S44  1  0.38519367  0.88519367  0.11480633  1
  S  S45  1  0.88519367  0.61480633  0.88519367  1
  S  S46  1  0.11480633  0.61480633  0.11480633  1
  S  S47  1  0.75000000  0.75000000  0.25000000  1
  I  I48  1  0.00000000  0.00000000  0.00000000  1
  I  I49  1  0.00000000  0.50000000  0.50000000  1
  I  I50  1  0.50000000  0.00000000  0.50000000  1
  I  I51  1  0.50000000  0.50000000  0.00000000  1
