# generated using pymatgen
data_CuClO2
_symmetry_space_group_name_H-M   'P 1'
_cell_length_a   6.95611600
_cell_length_b   10.67929400
_cell_length_c   3.78687400
_cell_angle_alpha   90.00000000
_cell_angle_beta   90.00000000
_cell_angle_gamma   90.00000000
_symmetry_Int_Tables_number   1
_chemical_formula_structural   CuClO2
_chemical_formula_sum   'Cu4 Cl4 O8'
_cell_volume   281.31326649
_cell_formula_units_Z   4
loop_
 _symmetry_equiv_pos_site_id
 _symmetry_equiv_pos_as_xyz
  1  'x, y, z'
loop_
 _atom_site_type_symbol
 _atom_site_label
 _atom_site_symmetry_multiplicity
 _atom_site_fract_x
 _atom_site_fract_y
 _atom_site_fract_z
 _atom_site_occupancy
  Cu  Cu0  1  0.27259500  0.00000000  0.00000000  1
  Cu  Cu1  1  0.72740500  0.00000000  0.50000000  1
  Cu  Cu2  1  0.77259500  0.50000000  0.00000000  1
  Cu  Cu3  1  0.22740500  0.50000000  0.50000000  1
  Cl  Cl4  1  0.50000000  0.87260100  0.25000000  1
  Cl  Cl5  1  0.50000000  0.12739900  0.75000000  1
  Cl  Cl6  1  0.00000000  0.37260100  0.25000000  1
  Cl  Cl7  1  0.00000000  0.62739900  0.75000000  1
  O  O8  1  0.90738150  0.09080850  0.78456200  1
  O  O9  1  0.90738150  0.90919150  0.21543800  1
  O  O10  1  0.09261850  0.09080850  0.71543800  1
  O  O11  1  0.09261850  0.90919150  0.28456200  1
  O  O12  1  0.40738150  0.59080850  0.78456200  1
  O  O13  1  0.40738150  0.40919150  0.21543800  1
  O  O14  1  0.59261850  0.59080850  0.71543800  1
  O  O15  1  0.59261850  0.40919150  0.28456200  1
