# generated using pymatgen
data_C3N4
_symmetry_space_group_name_H-M   'P 1'
_cell_length_a   7.13497400
_cell_length_b   12.35341800
_cell_length_c   7.13764500
_cell_angle_alpha   90.00000000
_cell_angle_beta   90.00000000
_cell_angle_gamma   90.00000000
_symmetry_Int_Tables_number   1
_chemical_formula_structural   C3N4
_chemical_formula_sum   'C24 N32'
_cell_volume   629.12142516
_cell_formula_units_Z   8
loop_
 _symmetry_equiv_pos_site_id
 _symmetry_equiv_pos_as_xyz
  1  'x, y, z'
loop_
 _atom_site_type_symbol
 _atom_site_label
 _atom_site_symmetry_multiplicity
 _atom_site_fract_x
 _atom_site_fract_y
 _atom_site_fract_z
 _atom_site_occupancy
  C  C0  1  0.67890000  0.99994900  0.25000000  1
  C  C1  1  0.83130150  0.83667950  0.25000000  1
  C  C2  1  0.50000000  0.50545100  0.25000000  1
  C  C3  1  0.50000000  0.17932000  0.25000000  1
  C  C4  1  0.16869850  0.83667950  0.25000000  1
  C  C5  1  0.32110000  0.99994900  0.25000000  1
  C  C6  1  0.32110000  0.00005100  0.75000000  1
  C  C7  1  0.16869850  0.16332050  0.75000000  1
  C  C8  1  0.50000000  0.49454900  0.75000000  1
  C  C9  1  0.50000000  0.82068000  0.75000000  1
  C  C10  1  0.83130150  0.16332050  0.75000000  1
  C  C11  1  0.67890000  0.00005100  0.75000000  1
  C  C12  1  0.17890000  0.49994900  0.25000000  1
  C  C13  1  0.33130150  0.33667950  0.25000000  1
  C  C14  1  0.00000000  0.00545100  0.25000000  1
  C  C15  1  0.00000000  0.67932000  0.25000000  1
  C  C16  1  0.66869850  0.33667950  0.25000000  1
  C  C17  1  0.82110000  0.49994900  0.25000000  1
  C  C18  1  0.82110000  0.50005100  0.75000000  1
  C  C19  1  0.66869850  0.66332050  0.75000000  1
  C  C20  1  0.00000000  0.99454900  0.75000000  1
  C  C21  1  0.00000000  0.32068000  0.75000000  1
  C  C22  1  0.33130150  0.66332050  0.75000000  1
  C  C23  1  0.17890000  0.50005100  0.75000000  1
  N  N24  1  0.50000000  0.05976400  0.25000000  1
  N  N25  1  0.83705950  0.05803250  0.25000000  1
  N  N26  1  0.67111250  0.89223250  0.25000000  1
  N  N27  1  0.50000000  0.39294300  0.25000000  1
  N  N28  1  0.33433500  0.22916600  0.25000000  1
  N  N29  1  0.66566500  0.22916600  0.25000000  1
  N  N30  1  0.32888750  0.89223250  0.25000000  1
  N  N31  1  0.16294050  0.05803250  0.25000000  1
  N  N32  1  0.50000000  0.94023600  0.75000000  1
  N  N33  1  0.16294050  0.94196750  0.75000000  1
  N  N34  1  0.32888750  0.10776750  0.75000000  1
  N  N35  1  0.50000000  0.60705700  0.75000000  1
  N  N36  1  0.66566500  0.77083400  0.75000000  1
  N  N37  1  0.33433500  0.77083400  0.75000000  1
  N  N38  1  0.67111250  0.10776750  0.75000000  1
  N  N39  1  0.83705950  0.94196750  0.75000000  1
  N  N40  1  0.00000000  0.55976400  0.25000000  1
  N  N41  1  0.33705950  0.55803250  0.25000000  1
  N  N42  1  0.17111250  0.39223250  0.25000000  1
  N  N43  1  0.00000000  0.89294300  0.25000000  1
  N  N44  1  0.83433500  0.72916600  0.25000000  1
  N  N45  1  0.16566500  0.72916600  0.25000000  1
  N  N46  1  0.82888750  0.39223250  0.25000000  1
  N  N47  1  0.66294050  0.55803250  0.25000000  1
  N  N48  1  0.00000000  0.44023600  0.75000000  1
  N  N49  1  0.66294050  0.44196750  0.75000000  1
  N  N50  1  0.82888750  0.60776750  0.75000000  1
  N  N51  1  0.00000000  0.10705700  0.75000000  1
  N  N52  1  0.16566500  0.27083400  0.75000000  1
  N  N53  1  0.83433500  0.27083400  0.75000000  1
  N  N54  1  0.17111250  0.60776750  0.75000000  1
  N  N55  1  0.33705950  0.44196750  0.75000000  1
