# generated using pymatgen
data_K2Pd3S4
_symmetry_space_group_name_H-M   'P 1'
_cell_length_a   6.19309000
_cell_length_b   10.87770200
_cell_length_c   26.17622000
_cell_angle_alpha   90.00000000
_cell_angle_beta   90.00000000
_cell_angle_gamma   90.00000000
_symmetry_Int_Tables_number   1
_chemical_formula_structural   K2Pd3S4
_chemical_formula_sum   'K16 Pd24 S32'
_cell_volume   1763.40261450
_cell_formula_units_Z   8
loop_
 _symmetry_equiv_pos_site_id
 _symmetry_equiv_pos_as_xyz
  1  'x, y, z'
loop_
 _atom_site_type_symbol
 _atom_site_label
 _atom_site_symmetry_multiplicity
 _atom_site_fract_x
 _atom_site_fract_y
 _atom_site_fract_z
 _atom_site_occupancy
  K  K0  1  0.50000000  0.00000000  0.57764200  1
  K  K1  1  0.25000000  0.75000000  0.82764200  1
  K  K2  1  0.25000000  0.75000000  0.67235800  1
  K  K3  1  0.00000000  0.00000000  0.92235800  1
  K  K4  1  0.50000000  0.50000000  0.07764200  1
  K  K5  1  0.25000000  0.25000000  0.32764200  1
  K  K6  1  0.25000000  0.25000000  0.17235800  1
  K  K7  1  0.00000000  0.50000000  0.42235800  1
  K  K8  1  0.00000000  0.00000000  0.07764200  1
  K  K9  1  0.75000000  0.75000000  0.32764200  1
  K  K10  1  0.75000000  0.75000000  0.17235800  1
  K  K11  1  0.50000000  0.00000000  0.42235800  1
  K  K12  1  0.00000000  0.50000000  0.57764200  1
  K  K13  1  0.75000000  0.25000000  0.82764200  1
  K  K14  1  0.75000000  0.25000000  0.67235800  1
  K  K15  1  0.50000000  0.50000000  0.92235800  1
  Pd  Pd16  1  0.50000000  0.00000000  0.75088000  1
  Pd  Pd17  1  0.75000000  0.75000000  0.50088000  1
  Pd  Pd18  1  0.75000000  0.75000000  0.99912000  1
  Pd  Pd19  1  0.50000000  0.00000000  0.00000000  1
  Pd  Pd20  1  0.75000000  0.75000000  0.75000000  1
  Pd  Pd21  1  0.00000000  0.00000000  0.74912000  1
  Pd  Pd22  1  0.50000000  0.50000000  0.25088000  1
  Pd  Pd23  1  0.75000000  0.25000000  0.00088000  1
  Pd  Pd24  1  0.75000000  0.25000000  0.49912000  1
  Pd  Pd25  1  0.50000000  0.50000000  0.50000000  1
  Pd  Pd26  1  0.75000000  0.25000000  0.25000000  1
  Pd  Pd27  1  0.00000000  0.50000000  0.24912000  1
  Pd  Pd28  1  0.00000000  0.00000000  0.25088000  1
  Pd  Pd29  1  0.25000000  0.75000000  0.00088000  1
  Pd  Pd30  1  0.25000000  0.75000000  0.49912000  1
  Pd  Pd31  1  0.00000000  0.00000000  0.50000000  1
  Pd  Pd32  1  0.25000000  0.75000000  0.25000000  1
  Pd  Pd33  1  0.50000000  0.00000000  0.24912000  1
  Pd  Pd34  1  0.00000000  0.50000000  0.75088000  1
  Pd  Pd35  1  0.25000000  0.25000000  0.50088000  1
  Pd  Pd36  1  0.25000000  0.25000000  0.99912000  1
  Pd  Pd37  1  0.00000000  0.50000000  0.00000000  1
  Pd  Pd38  1  0.25000000  0.25000000  0.75000000  1
  Pd  Pd39  1  0.50000000  0.50000000  0.74912000  1
  S  S40  1  0.49439650  0.66593300  0.55895350  1
  S  S41  1  0.74439650  0.91593300  0.69104650  1
  S  S42  1  0.74439650  0.58406700  0.80895350  1
  S  S43  1  0.75560350  0.91593300  0.80895350  1
  S  S44  1  0.49439650  0.83406700  0.94104650  1
  S  S45  1  0.00560350  0.66593300  0.94104650  1
  S  S46  1  0.00560350  0.83406700  0.55895350  1
  S  S47  1  0.75560350  0.58406700  0.69104650  1
  S  S48  1  0.49439650  0.16593300  0.05895350  1
  S  S49  1  0.74439650  0.41593300  0.19104650  1
  S  S50  1  0.74439650  0.08406700  0.30895350  1
  S  S51  1  0.75560350  0.41593300  0.30895350  1
  S  S52  1  0.49439650  0.33406700  0.44104650  1
  S  S53  1  0.00560350  0.16593300  0.44104650  1
  S  S54  1  0.00560350  0.33406700  0.05895350  1
  S  S55  1  0.75560350  0.08406700  0.19104650  1
  S  S56  1  0.99439650  0.66593300  0.05895350  1
  S  S57  1  0.24439650  0.91593300  0.19104650  1
  S  S58  1  0.24439650  0.58406700  0.30895350  1
  S  S59  1  0.25560350  0.91593300  0.30895350  1
  S  S60  1  0.99439650  0.83406700  0.44104650  1
  S  S61  1  0.50560350  0.66593300  0.44104650  1
  S  S62  1  0.50560350  0.83406700  0.05895350  1
  S  S63  1  0.25560350  0.58406700  0.19104650  1
  S  S64  1  0.99439650  0.16593300  0.55895350  1
  S  S65  1  0.24439650  0.41593300  0.69104650  1
  S  S66  1  0.24439650  0.08406700  0.80895350  1
  S  S67  1  0.25560350  0.41593300  0.80895350  1
  S  S68  1  0.99439650  0.33406700  0.94104650  1
  S  S69  1  0.50560350  0.16593300  0.94104650  1
  S  S70  1  0.50560350  0.33406700  0.55895350  1
  S  S71  1  0.25560350  0.08406700  0.69104650  1
