# generated using pymatgen
data_RbPbCl3
_symmetry_space_group_name_H-M   'P 1'
_cell_length_a   8.08009000
_cell_length_b   8.09046200
_cell_length_c   5.71394563
_cell_angle_alpha   90.00000000
_cell_angle_beta   90.12964382
_cell_angle_gamma   90.00000000
_symmetry_Int_Tables_number   1
_chemical_formula_structural   RbPbCl3
_chemical_formula_sum   'Rb2 Pb2 Cl6'
_cell_volume   373.52916089
_cell_formula_units_Z   2
loop_
 _symmetry_equiv_pos_site_id
 _symmetry_equiv_pos_as_xyz
  1  'x, y, z'
loop_
 _atom_site_type_symbol
 _atom_site_label
 _atom_site_symmetry_multiplicity
 _atom_site_fract_x
 _atom_site_fract_y
 _atom_site_fract_z
 _atom_site_occupancy
  Rb  Rb0  1  0.99478600  0.00000000  0.99887300  1
  Rb  Rb1  1  0.49478600  0.50000000  0.99887300  1
  Pb  Pb2  1  0.49589300  0.00000000  0.48573300  1
  Pb  Pb3  1  0.99589300  0.50000000  0.48573300  1
  Cl  Cl4  1  0.74529600  0.74909700  0.48346900  1
  Cl  Cl5  1  0.50790700  0.00000000  0.98484200  1
  Cl  Cl6  1  0.74529600  0.25090300  0.48346900  1
  Cl  Cl7  1  0.24529600  0.24909700  0.48346900  1
  Cl  Cl8  1  0.00790700  0.50000000  0.98484200  1
  Cl  Cl9  1  0.24529600  0.75090300  0.48346900  1
