# generated using pymatgen
data_NaH6CN2ClO2
_symmetry_space_group_name_H-M   'P 1'
_cell_length_a   18.64192400
_cell_length_b   5.13278600
_cell_length_c   6.43967854
_cell_angle_alpha   90.00000000
_cell_angle_beta   109.78782716
_cell_angle_gamma   90.00000000
_symmetry_Int_Tables_number   1
_chemical_formula_structural   NaH6CN2ClO2
_chemical_formula_sum   'Na4 H24 C4 N8 Cl4 O8'
_cell_volume   579.79688611
_cell_formula_units_Z   4
loop_
 _symmetry_equiv_pos_site_id
 _symmetry_equiv_pos_as_xyz
  1  'x, y, z'
loop_
 _atom_site_type_symbol
 _atom_site_label
 _atom_site_symmetry_multiplicity
 _atom_site_fract_x
 _atom_site_fract_y
 _atom_site_fract_z
 _atom_site_occupancy
  Na  Na0  1  0.49803300  0.19210700  0.26011400  1
  Na  Na1  1  0.00196700  0.69210700  0.73988600  1
  Na  Na2  1  0.99803300  0.69210700  0.26011400  1
  Na  Na3  1  0.50196700  0.19210700  0.73988600  1
  H  H4  1  0.45679400  0.66746900  0.45933800  1
  H  H5  1  0.45600500  0.75497700  0.94908200  1
  H  H6  1  0.33372000  0.69202600  0.09888600  1
  H  H7  1  0.31953700  0.23741600  0.54911000  1
  H  H8  1  0.26396950  0.62711250  0.65642200  1
  H  H9  1  0.25541850  0.28823050  0.89297100  1
  H  H10  1  0.24458150  0.78823050  0.10702900  1
  H  H11  1  0.23603050  0.12711250  0.34357800  1
  H  H12  1  0.18046300  0.73741600  0.45089000  1
  H  H13  1  0.16628000  0.19202600  0.90111400  1
  H  H14  1  0.04399500  0.25497700  0.05091800  1
  H  H15  1  0.04320600  0.16746900  0.54066200  1
  H  H16  1  0.95679400  0.16746900  0.45933800  1
  H  H17  1  0.95600500  0.25497700  0.94908200  1
  H  H18  1  0.83372000  0.19202600  0.09888600  1
  H  H19  1  0.81953700  0.73741600  0.54911000  1
  H  H20  1  0.76396950  0.12711250  0.65642200  1
  H  H21  1  0.75541850  0.78823050  0.89297100  1
  H  H22  1  0.74458150  0.28823050  0.10702900  1
  H  H23  1  0.73603050  0.62711250  0.34357800  1
  H  H24  1  0.68046300  0.23741600  0.45089000  1
  H  H25  1  0.66628000  0.69202600  0.90111400  1
  H  H26  1  0.54399500  0.75497700  0.05091800  1
  H  H27  1  0.54320600  0.66746900  0.54066200  1
  C  C28  1  0.33769750  0.97252450  0.33327100  1
  C  C29  1  0.16230250  0.47252450  0.66672900  1
  C  C30  1  0.83769750  0.47252450  0.33327100  1
  C  C31  1  0.66230250  0.97252450  0.66672900  1
  N  N32  1  0.30225250  0.80912750  0.16410500  1
  N  N33  1  0.29393300  0.13190800  0.40820300  1
  N  N34  1  0.20606700  0.63190800  0.59179700  1
  N  N35  1  0.19774750  0.30912750  0.83589500  1
  N  N36  1  0.80225250  0.30912750  0.16410500  1
  N  N37  1  0.79393300  0.63190800  0.40820300  1
  N  N38  1  0.70606700  0.13190800  0.59179700  1
  N  N39  1  0.69774750  0.80912750  0.83589500  1
  Cl  Cl40  1  0.38195650  0.42115950  0.88678000  1
  Cl  Cl41  1  0.11804350  0.92115950  0.11322000  1
  Cl  Cl42  1  0.88195650  0.92115950  0.88678000  1
  Cl  Cl43  1  0.61804350  0.42115950  0.11322000  1
  O  O44  1  0.00000000  0.37532000  0.00000000  1
  O  O45  1  0.00000000  0.04240600  0.50000000  1
  O  O46  1  0.41002900  0.97852800  0.41776100  1
  O  O47  1  0.08997100  0.47852800  0.58223900  1
  O  O48  1  0.50000000  0.87532000  0.00000000  1
  O  O49  1  0.50000000  0.54240600  0.50000000  1
  O  O50  1  0.91002900  0.47852800  0.41776100  1
  O  O51  1  0.58997100  0.97852800  0.58223900  1
