# generated using pymatgen
data_Th(FeP3)4
_symmetry_space_group_name_H-M   'P 1'
_cell_length_a   7.80462800
_cell_length_b   7.80462800
_cell_length_c   7.80462800
_cell_angle_alpha   90.00000000
_cell_angle_beta   90.00000000
_cell_angle_gamma   90.00000000
_symmetry_Int_Tables_number   1
_chemical_formula_structural   Th(FeP3)4
_chemical_formula_sum   'Th2 Fe8 P24'
_cell_volume   475.39720385
_cell_formula_units_Z   2
loop_
 _symmetry_equiv_pos_site_id
 _symmetry_equiv_pos_as_xyz
  1  'x, y, z'
loop_
 _atom_site_type_symbol
 _atom_site_label
 _atom_site_symmetry_multiplicity
 _atom_site_fract_x
 _atom_site_fract_y
 _atom_site_fract_z
 _atom_site_occupancy
  Th  Th0  1  0.00000000  0.00000000  0.00000000  1
  Th  Th1  1  0.50000000  0.50000000  0.50000000  1
  Fe  Fe2  1  0.25000000  0.25000000  0.75000000  1
  Fe  Fe3  1  0.25000000  0.75000000  0.25000000  1
  Fe  Fe4  1  0.75000000  0.25000000  0.25000000  1
  Fe  Fe5  1  0.25000000  0.25000000  0.25000000  1
  Fe  Fe6  1  0.75000000  0.75000000  0.25000000  1
  Fe  Fe7  1  0.75000000  0.25000000  0.75000000  1
  Fe  Fe8  1  0.25000000  0.75000000  0.75000000  1
  Fe  Fe9  1  0.75000000  0.75000000  0.75000000  1
  P  P10  1  0.14871450  0.34777350  0.50000000  1
  P  P11  1  0.85128550  0.34777350  0.50000000  1
  P  P12  1  0.64871450  0.15222650  0.00000000  1
  P  P13  1  0.15222650  0.00000000  0.35128550  1
  P  P14  1  0.00000000  0.35128550  0.15222650  1
  P  P15  1  0.35128550  0.15222650  0.00000000  1
  P  P16  1  0.15222650  0.00000000  0.64871450  1
  P  P17  1  0.50000000  0.85128550  0.34777350  1
  P  P18  1  0.34777350  0.50000000  0.14871450  1
  P  P19  1  0.00000000  0.64871450  0.15222650  1
  P  P20  1  0.34777350  0.50000000  0.85128550  1
  P  P21  1  0.50000000  0.14871450  0.34777350  1
  P  P22  1  0.64871450  0.84777350  0.00000000  1
  P  P23  1  0.35128550  0.84777350  0.00000000  1
  P  P24  1  0.14871450  0.65222650  0.50000000  1
  P  P25  1  0.65222650  0.50000000  0.85128550  1
  P  P26  1  0.50000000  0.85128550  0.65222650  1
  P  P27  1  0.85128550  0.65222650  0.50000000  1
  P  P28  1  0.65222650  0.50000000  0.14871450  1
  P  P29  1  0.00000000  0.35128550  0.84777350  1
  P  P30  1  0.84777350  0.00000000  0.64871450  1
  P  P31  1  0.50000000  0.14871450  0.65222650  1
  P  P32  1  0.84777350  0.00000000  0.35128550  1
  P  P33  1  0.00000000  0.64871450  0.84777350  1
