# generated using pymatgen
data_SF6
_symmetry_space_group_name_H-M   'P 1'
_cell_length_a   14.45205200
_cell_length_b   8.49886800
_cell_length_c   4.97235238
_cell_angle_alpha   90.00000000
_cell_angle_beta   95.29289335
_cell_angle_gamma   90.00000000
_symmetry_Int_Tables_number   1
_chemical_formula_structural   SF6
_chemical_formula_sum   'S6 F36'
_cell_volume   608.13048009
_cell_formula_units_Z   6
loop_
 _symmetry_equiv_pos_site_id
 _symmetry_equiv_pos_as_xyz
  1  'x, y, z'
loop_
 _atom_site_type_symbol
 _atom_site_label
 _atom_site_symmetry_multiplicity
 _atom_site_fract_x
 _atom_site_fract_y
 _atom_site_fract_z
 _atom_site_occupancy
  S  S0  1  0.33157300  0.00000000  0.40965700  1
  S  S1  1  0.66842700  0.00000000  0.59034300  1
  S  S2  1  0.00000000  0.00000000  0.00000000  1
  S  S3  1  0.83157300  0.50000000  0.40965700  1
  S  S4  1  0.16842700  0.50000000  0.59034300  1
  S  S5  1  0.50000000  0.50000000  0.00000000  1
  F  F6  1  0.61190200  0.13291300  0.41765400  1
  F  F7  1  0.06747000  0.00000000  0.27299600  1
  F  F8  1  0.93253000  0.00000000  0.72700400  1
  F  F9  1  0.56232350  0.63287450  0.87874700  1
  F  F10  1  0.43767650  0.63287450  0.12125300  1
  F  F11  1  0.43767650  0.36712550  0.12125300  1
  F  F12  1  0.56232350  0.36712550  0.87874700  1
  F  F13  1  0.38809800  0.13291300  0.58234600  1
  F  F14  1  0.38809800  0.86708700  0.58234600  1
  F  F15  1  0.74540400  0.00000000  0.37959700  1
  F  F16  1  0.25459600  0.00000000  0.62040300  1
  F  F17  1  0.59141900  0.00000000  0.80108300  1
  F  F18  1  0.40858100  0.00000000  0.19891700  1
  F  F19  1  0.72494800  0.86712200  0.76320300  1
  F  F20  1  0.27505200  0.86712200  0.23679700  1
  F  F21  1  0.27505200  0.13287800  0.23679700  1
  F  F22  1  0.72494800  0.13287800  0.76320300  1
  F  F23  1  0.61190200  0.86708700  0.41765400  1
  F  F24  1  0.11190200  0.63291300  0.41765400  1
  F  F25  1  0.56747000  0.50000000  0.27299600  1
  F  F26  1  0.43253000  0.50000000  0.72700400  1
  F  F27  1  0.06232350  0.13287450  0.87874700  1
  F  F28  1  0.93767650  0.13287450  0.12125300  1
  F  F29  1  0.93767650  0.86712550  0.12125300  1
  F  F30  1  0.06232350  0.86712550  0.87874700  1
  F  F31  1  0.88809800  0.63291300  0.58234600  1
  F  F32  1  0.88809800  0.36708700  0.58234600  1
  F  F33  1  0.24540400  0.50000000  0.37959700  1
  F  F34  1  0.75459600  0.50000000  0.62040300  1
  F  F35  1  0.09141900  0.50000000  0.80108300  1
  F  F36  1  0.90858100  0.50000000  0.19891700  1
  F  F37  1  0.22494800  0.36712200  0.76320300  1
  F  F38  1  0.77505200  0.36712200  0.23679700  1
  F  F39  1  0.77505200  0.63287800  0.23679700  1
  F  F40  1  0.22494800  0.63287800  0.76320300  1
  F  F41  1  0.11190200  0.36708700  0.41765400  1
