# generated using pymatgen
data_KCaBr3
_symmetry_space_group_name_H-M   'P 1'
_cell_length_a   4.30935800
_cell_length_b   14.42461000
_cell_length_c   10.85699100
_cell_angle_alpha   90.00000000
_cell_angle_beta   90.00000000
_cell_angle_gamma   90.00000000
_symmetry_Int_Tables_number   1
_chemical_formula_structural   KCaBr3
_chemical_formula_sum   'K4 Ca4 Br12'
_cell_volume   674.87933844
_cell_formula_units_Z   4
loop_
 _symmetry_equiv_pos_site_id
 _symmetry_equiv_pos_as_xyz
  1  'x, y, z'
loop_
 _atom_site_type_symbol
 _atom_site_label
 _atom_site_symmetry_multiplicity
 _atom_site_fract_x
 _atom_site_fract_y
 _atom_site_fract_z
 _atom_site_occupancy
  K  K0  1  0.00000000  0.25613300  0.25000000  1
  K  K1  1  0.50000000  0.24386700  0.75000000  1
  K  K2  1  0.50000000  0.75613300  0.25000000  1
  K  K3  1  0.00000000  0.74386700  0.75000000  1
  Ca  Ca4  1  0.00000000  0.00000000  0.00000000  1
  Ca  Ca5  1  0.00000000  0.00000000  0.50000000  1
  Ca  Ca6  1  0.50000000  0.50000000  0.00000000  1
  Ca  Ca7  1  0.50000000  0.50000000  0.50000000  1
  Br  Br8  1  0.00000000  0.36820700  0.94464500  1
  Br  Br9  1  0.50000000  0.13179300  0.44464500  1
  Br  Br10  1  0.00000000  0.36820700  0.55535500  1
  Br  Br11  1  0.50000000  0.13179300  0.05535500  1
  Br  Br12  1  0.50000000  0.42926300  0.25000000  1
  Br  Br13  1  0.00000000  0.07073700  0.75000000  1
  Br  Br14  1  0.50000000  0.86820700  0.94464500  1
  Br  Br15  1  0.00000000  0.63179300  0.44464500  1
  Br  Br16  1  0.50000000  0.86820700  0.55535500  1
  Br  Br17  1  0.00000000  0.63179300  0.05535500  1
  Br  Br18  1  0.00000000  0.92926300  0.25000000  1
  Br  Br19  1  0.50000000  0.57073700  0.75000000  1
