# generated using pymatgen
data_LiAuO2
_symmetry_space_group_name_H-M   'P 1'
_cell_length_a   10.96798000
_cell_length_b   4.07963600
_cell_length_c   5.40146728
_cell_angle_alpha   90.00000000
_cell_angle_beta   114.39748339
_cell_angle_gamma   90.00000000
_symmetry_Int_Tables_number   1
_chemical_formula_structural   LiAuO2
_chemical_formula_sum   'Li4 Au4 O8'
_cell_volume   220.10809354
_cell_formula_units_Z   4
loop_
 _symmetry_equiv_pos_site_id
 _symmetry_equiv_pos_as_xyz
  1  'x, y, z'
loop_
 _atom_site_type_symbol
 _atom_site_label
 _atom_site_symmetry_multiplicity
 _atom_site_fract_x
 _atom_site_fract_y
 _atom_site_fract_z
 _atom_site_occupancy
  Li  Li0  1  0.00000000  0.62771200  0.75000000  1
  Li  Li1  1  0.00000000  0.37228800  0.25000000  1
  Li  Li2  1  0.50000000  0.12771200  0.75000000  1
  Li  Li3  1  0.50000000  0.87228800  0.25000000  1
  Au  Au4  1  0.25000000  0.25000000  0.00000000  1
  Au  Au5  1  0.25000000  0.75000000  0.50000000  1
  Au  Au6  1  0.75000000  0.75000000  0.00000000  1
  Au  Au7  1  0.75000000  0.25000000  0.50000000  1
  O  O8  1  0.36020200  0.04560700  0.36767200  1
  O  O9  1  0.36020200  0.95439300  0.86767200  1
  O  O10  1  0.13979800  0.54560700  0.13232800  1
  O  O11  1  0.13979800  0.45439300  0.63232800  1
  O  O12  1  0.86020200  0.54560700  0.36767200  1
  O  O13  1  0.86020200  0.45439300  0.86767200  1
  O  O14  1  0.63979800  0.04560700  0.13232800  1
  O  O15  1  0.63979800  0.95439300  0.63232800  1
