# generated using pymatgen
data_Na2LiGaAs2
_symmetry_space_group_name_H-M   'P 1'
_cell_length_a   12.16635600
_cell_length_b   14.16208000
_cell_length_c   5.92218900
_cell_angle_alpha   90.00000000
_cell_angle_beta   90.00000000
_cell_angle_gamma   90.00000000
_symmetry_Int_Tables_number   1
_chemical_formula_structural   Na2LiGaAs2
_chemical_formula_sum   'Na16 Li8 Ga8 As16'
_cell_volume   1020.39853601
_cell_formula_units_Z   8
loop_
 _symmetry_equiv_pos_site_id
 _symmetry_equiv_pos_as_xyz
  1  'x, y, z'
loop_
 _atom_site_type_symbol
 _atom_site_label
 _atom_site_symmetry_multiplicity
 _atom_site_fract_x
 _atom_site_fract_y
 _atom_site_fract_z
 _atom_site_occupancy
  Na  Na0  1  0.25000000  0.82218700  0.25000000  1
  Na  Na1  1  0.25000000  0.17781300  0.75000000  1
  Na  Na2  1  0.75000000  0.17781300  0.75000000  1
  Na  Na3  1  0.50000000  0.17590800  0.27939700  1
  Na  Na4  1  0.50000000  0.67590800  0.22060300  1
  Na  Na5  1  0.50000000  0.82409200  0.72060300  1
  Na  Na6  1  0.50000000  0.32409200  0.77939700  1
  Na  Na7  1  0.75000000  0.82218700  0.25000000  1
  Na  Na8  1  0.75000000  0.32218700  0.25000000  1
  Na  Na9  1  0.75000000  0.67781300  0.75000000  1
  Na  Na10  1  0.25000000  0.67781300  0.75000000  1
  Na  Na11  1  0.00000000  0.67590800  0.27939700  1
  Na  Na12  1  0.00000000  0.17590800  0.22060300  1
  Na  Na13  1  0.00000000  0.32409200  0.72060300  1
  Na  Na14  1  0.00000000  0.82409200  0.77939700  1
  Na  Na15  1  0.25000000  0.32218700  0.25000000  1
  Li  Li16  1  0.38059500  0.00000000  0.50000000  1
  Li  Li17  1  0.11940500  0.00000000  0.00000000  1
  Li  Li18  1  0.61940500  0.00000000  0.50000000  1
  Li  Li19  1  0.88059500  0.00000000  0.00000000  1
  Li  Li20  1  0.88059500  0.50000000  0.50000000  1
  Li  Li21  1  0.61940500  0.50000000  0.00000000  1
  Li  Li22  1  0.11940500  0.50000000  0.50000000  1
  Li  Li23  1  0.38059500  0.50000000  0.00000000  1
  Ga  Ga24  1  0.86862200  0.00000000  0.50000000  1
  Ga  Ga25  1  0.13137800  0.00000000  0.50000000  1
  Ga  Ga26  1  0.63137800  0.00000000  0.00000000  1
  Ga  Ga27  1  0.36862200  0.00000000  0.00000000  1
  Ga  Ga28  1  0.36862200  0.50000000  0.50000000  1
  Ga  Ga29  1  0.63137800  0.50000000  0.50000000  1
  Ga  Ga30  1  0.13137800  0.50000000  0.00000000  1
  Ga  Ga31  1  0.86862200  0.50000000  0.00000000  1
  As  As32  1  0.50000000  0.39311500  0.28135200  1
  As  As33  1  0.50000000  0.89311500  0.21864800  1
  As  As34  1  0.50000000  0.60688500  0.71864800  1
  As  As35  1  0.50000000  0.10688500  0.78135200  1
  As  As36  1  0.25000000  0.10719000  0.25000000  1
  As  As37  1  0.25000000  0.89281000  0.75000000  1
  As  As38  1  0.75000000  0.89281000  0.75000000  1
  As  As39  1  0.75000000  0.10719000  0.25000000  1
  As  As40  1  0.00000000  0.89311500  0.28135200  1
  As  As41  1  0.00000000  0.39311500  0.21864800  1
  As  As42  1  0.00000000  0.10688500  0.71864800  1
  As  As43  1  0.00000000  0.60688500  0.78135200  1
  As  As44  1  0.75000000  0.60719000  0.25000000  1
  As  As45  1  0.75000000  0.39281000  0.75000000  1
  As  As46  1  0.25000000  0.39281000  0.75000000  1
  As  As47  1  0.25000000  0.60719000  0.25000000  1
