# generated using pymatgen
data_AuBrO2
_symmetry_space_group_name_H-M   'P 1'
_cell_length_a   7.50988400
_cell_length_b   11.26841000
_cell_length_c   4.20030100
_cell_angle_alpha   90.00000000
_cell_angle_beta   90.00000000
_cell_angle_gamma   90.00000000
_symmetry_Int_Tables_number   1
_chemical_formula_structural   AuBrO2
_chemical_formula_sum   'Au4 Br4 O8'
_cell_volume   355.44817021
_cell_formula_units_Z   4
loop_
 _symmetry_equiv_pos_site_id
 _symmetry_equiv_pos_as_xyz
  1  'x, y, z'
loop_
 _atom_site_type_symbol
 _atom_site_label
 _atom_site_symmetry_multiplicity
 _atom_site_fract_x
 _atom_site_fract_y
 _atom_site_fract_z
 _atom_site_occupancy
  Au  Au0  1  0.26288800  0.00000000  0.50000000  1
  Au  Au1  1  0.73711200  0.00000000  0.00000000  1
  Au  Au2  1  0.76288800  0.50000000  0.50000000  1
  Au  Au3  1  0.23711200  0.50000000  0.00000000  1
  Br  Br4  1  0.50000000  0.13466600  0.25000000  1
  Br  Br5  1  0.50000000  0.86533400  0.75000000  1
  Br  Br6  1  0.00000000  0.63466600  0.25000000  1
  Br  Br7  1  0.00000000  0.36533400  0.75000000  1
  O  O8  1  0.41413050  0.40074250  0.71539100  1
  O  O9  1  0.58586950  0.40074250  0.78460900  1
  O  O10  1  0.41413050  0.59925750  0.28460900  1
  O  O11  1  0.58586950  0.59925750  0.21539100  1
  O  O12  1  0.91413050  0.90074250  0.71539100  1
  O  O13  1  0.08586950  0.90074250  0.78460900  1
  O  O14  1  0.91413050  0.09925750  0.28460900  1
  O  O15  1  0.08586950  0.09925750  0.21539100  1
