# generated using pymatgen
data_K2NaAlAs2
_symmetry_space_group_name_H-M   'P 1'
_cell_length_a   6.52874000
_cell_length_b   6.80986800
_cell_length_c   15.12781400
_cell_angle_alpha   90.00000000
_cell_angle_beta   90.00000000
_cell_angle_gamma   90.00000000
_symmetry_Int_Tables_number   1
_chemical_formula_structural   K2NaAlAs2
_chemical_formula_sum   'K8 Na4 Al4 As8'
_cell_volume   672.58045633
_cell_formula_units_Z   4
loop_
 _symmetry_equiv_pos_site_id
 _symmetry_equiv_pos_as_xyz
  1  'x, y, z'
loop_
 _atom_site_type_symbol
 _atom_site_label
 _atom_site_symmetry_multiplicity
 _atom_site_fract_x
 _atom_site_fract_y
 _atom_site_fract_z
 _atom_site_occupancy
  K  K0  1  0.50000000  0.25863400  0.17485700  1
  K  K1  1  0.50000000  0.75863400  0.32514300  1
  K  K2  1  0.00000000  0.24136600  0.32514300  1
  K  K3  1  0.00000000  0.74136600  0.17485700  1
  K  K4  1  0.00000000  0.75863400  0.67485700  1
  K  K5  1  0.00000000  0.25863400  0.82514300  1
  K  K6  1  0.50000000  0.74136600  0.82514300  1
  K  K7  1  0.50000000  0.24136600  0.67485700  1
  Na  Na8  1  0.25000000  0.50000000  0.00000000  1
  Na  Na9  1  0.75000000  0.50000000  0.00000000  1
  Na  Na10  1  0.75000000  0.00000000  0.50000000  1
  Na  Na11  1  0.25000000  0.00000000  0.50000000  1
  Al  Al12  1  0.25000000  0.00000000  0.00000000  1
  Al  Al13  1  0.75000000  0.00000000  0.00000000  1
  Al  Al14  1  0.75000000  0.50000000  0.50000000  1
  Al  Al15  1  0.25000000  0.50000000  0.50000000  1
  As  As16  1  0.00000000  0.20042500  0.09423200  1
  As  As17  1  0.50000000  0.29957500  0.40576800  1
  As  As18  1  0.00000000  0.70042500  0.40576800  1
  As  As19  1  0.50000000  0.79957500  0.09423200  1
  As  As20  1  0.50000000  0.70042500  0.59423200  1
  As  As21  1  0.00000000  0.79957500  0.90576800  1
  As  As22  1  0.50000000  0.20042500  0.90576800  1
  As  As23  1  0.00000000  0.29957500  0.59423200  1
