# generated using pymatgen
data_Sr3(AlP2)2
_symmetry_space_group_name_H-M   'P 1'
_cell_length_a   13.22947800
_cell_length_b   10.21760800
_cell_length_c   6.70630811
_cell_angle_alpha   90.00000000
_cell_angle_beta   91.13987220
_cell_angle_gamma   90.00000000
_symmetry_Int_Tables_number   1
_chemical_formula_structural   Sr3(AlP2)2
_chemical_formula_sum   'Sr12 Al8 P16'
_cell_volume   906.33655547
_cell_formula_units_Z   4
loop_
 _symmetry_equiv_pos_site_id
 _symmetry_equiv_pos_as_xyz
  1  'x, y, z'
loop_
 _atom_site_type_symbol
 _atom_site_label
 _atom_site_symmetry_multiplicity
 _atom_site_fract_x
 _atom_site_fract_y
 _atom_site_fract_z
 _atom_site_occupancy
  Sr  Sr0  1  0.37704550  0.63039450  0.45580000  1
  Sr  Sr1  1  0.62295450  0.63039450  0.04420000  1
  Sr  Sr2  1  0.62295450  0.36960550  0.54420000  1
  Sr  Sr3  1  0.37704550  0.36960550  0.95580000  1
  Sr  Sr4  1  0.50000000  0.90196600  0.75000000  1
  Sr  Sr5  1  0.50000000  0.09803400  0.25000000  1
  Sr  Sr6  1  0.87704550  0.13039450  0.45580000  1
  Sr  Sr7  1  0.12295450  0.13039450  0.04420000  1
  Sr  Sr8  1  0.12295450  0.86960550  0.54420000  1
  Sr  Sr9  1  0.87704550  0.86960550  0.95580000  1
  Sr  Sr10  1  0.00000000  0.40196600  0.75000000  1
  Sr  Sr11  1  0.00000000  0.59803400  0.25000000  1
  Al  Al12  1  0.29480000  0.12320400  0.58031600  1
  Al  Al13  1  0.70520000  0.12320400  0.91968400  1
  Al  Al14  1  0.70520000  0.87679600  0.41968400  1
  Al  Al15  1  0.29480000  0.87679600  0.08031600  1
  Al  Al16  1  0.79480000  0.62320400  0.58031600  1
  Al  Al17  1  0.20520000  0.62320400  0.91968400  1
  Al  Al18  1  0.20520000  0.37679600  0.41968400  1
  Al  Al19  1  0.79480000  0.37679600  0.08031600  1
  P  P20  1  0.61802300  0.67752100  0.52370700  1
  P  P21  1  0.38197700  0.67752100  0.97629300  1
  P  P22  1  0.66070850  0.92064450  0.07834600  1
  P  P23  1  0.33929150  0.92064450  0.42165400  1
  P  P24  1  0.33929150  0.07935550  0.92165400  1
  P  P25  1  0.66070850  0.07935550  0.57834600  1
  P  P26  1  0.61802300  0.32247900  0.02370700  1
  P  P27  1  0.38197700  0.32247900  0.47629300  1
  P  P28  1  0.11802300  0.17752100  0.52370700  1
  P  P29  1  0.88197700  0.17752100  0.97629300  1
  P  P30  1  0.16070850  0.42064450  0.07834600  1
  P  P31  1  0.83929150  0.42064450  0.42165400  1
  P  P32  1  0.83929150  0.57935550  0.92165400  1
  P  P33  1  0.16070850  0.57935550  0.57834600  1
  P  P34  1  0.11802300  0.82247900  0.02370700  1
  P  P35  1  0.88197700  0.82247900  0.47629300  1
