# generated using pymatgen
data_CaTcN3
_symmetry_space_group_name_H-M   'P 1'
_cell_length_a   10.98566000
_cell_length_b   9.91426000
_cell_length_c   6.23939658
_cell_angle_alpha   90.00000000
_cell_angle_beta   110.72859135
_cell_angle_gamma   90.00000000
_symmetry_Int_Tables_number   1
_chemical_formula_structural   CaTcN3
_chemical_formula_sum   'Ca8 Tc8 N24'
_cell_volume   635.57221522
_cell_formula_units_Z   8
loop_
 _symmetry_equiv_pos_site_id
 _symmetry_equiv_pos_as_xyz
  1  'x, y, z'
loop_
 _atom_site_type_symbol
 _atom_site_label
 _atom_site_symmetry_multiplicity
 _atom_site_fract_x
 _atom_site_fract_y
 _atom_site_fract_z
 _atom_site_occupancy
  Ca  Ca0  1  0.00000000  0.69578000  0.75000000  1
  Ca  Ca1  1  0.00000000  0.91384000  0.25000000  1
  Ca  Ca2  1  0.00000000  0.08616000  0.75000000  1
  Ca  Ca3  1  0.00000000  0.30422000  0.25000000  1
  Ca  Ca4  1  0.50000000  0.19578000  0.75000000  1
  Ca  Ca5  1  0.50000000  0.41384000  0.25000000  1
  Ca  Ca6  1  0.50000000  0.58616000  0.75000000  1
  Ca  Ca7  1  0.50000000  0.80422000  0.25000000  1
  Tc  Tc8  1  0.21088000  0.41101000  0.73039000  1
  Tc  Tc9  1  0.21088000  0.58899000  0.23039000  1
  Tc  Tc10  1  0.78912000  0.41101000  0.76961000  1
  Tc  Tc11  1  0.78912000  0.58899000  0.26961000  1
  Tc  Tc12  1  0.71088000  0.91101000  0.73039000  1
  Tc  Tc13  1  0.71088000  0.08899000  0.23039000  1
  Tc  Tc14  1  0.28912000  0.91101000  0.76961000  1
  Tc  Tc15  1  0.28912000  0.08899000  0.26961000  1
  N  N16  1  0.15093000  0.49735000  0.44467000  1
  N  N17  1  0.61763000  0.38991000  0.66201000  1
  N  N18  1  0.15093000  0.50265000  0.94467000  1
  N  N19  1  0.84907000  0.49735000  0.05533000  1
  N  N20  1  0.86612000  0.25544000  0.82975000  1
  N  N21  1  0.61763000  0.61009000  0.16201000  1
  N  N22  1  0.84907000  0.50265000  0.55533000  1
  N  N23  1  0.38237000  0.38991000  0.83799000  1
  N  N24  1  0.38237000  0.61009000  0.33799000  1
  N  N25  1  0.86612000  0.74456000  0.32975000  1
  N  N26  1  0.13388000  0.74456000  0.17025000  1
  N  N27  1  0.13388000  0.25544000  0.67025000  1
  N  N28  1  0.65093000  0.99735000  0.44467000  1
  N  N29  1  0.11763000  0.88991000  0.66201000  1
  N  N30  1  0.65093000  0.00265000  0.94467000  1
  N  N31  1  0.34907000  0.99735000  0.05533000  1
  N  N32  1  0.36612000  0.75544000  0.82975000  1
  N  N33  1  0.11763000  0.11009000  0.16201000  1
  N  N34  1  0.34907000  0.00265000  0.55533000  1
  N  N35  1  0.88237000  0.88991000  0.83799000  1
  N  N36  1  0.88237000  0.11009000  0.33799000  1
  N  N37  1  0.36612000  0.24456000  0.32975000  1
  N  N38  1  0.63388000  0.24456000  0.17025000  1
  N  N39  1  0.63388000  0.75544000  0.67025000  1
