# generated using pymatgen
data_SiGeN2O
_symmetry_space_group_name_H-M   'P 1'
_cell_length_a   5.38599900
_cell_length_b   5.00892300
_cell_length_c   5.39055554
_cell_angle_alpha   90.00000000
_cell_angle_beta   116.92177217
_cell_angle_gamma   90.00000000
_symmetry_Int_Tables_number   1
_chemical_formula_structural   SiGeN2O
_chemical_formula_sum   'Si2 Ge2 N4 O2'
_cell_volume   129.66615998
_cell_formula_units_Z   2
loop_
 _symmetry_equiv_pos_site_id
 _symmetry_equiv_pos_as_xyz
  1  'x, y, z'
loop_
 _atom_site_type_symbol
 _atom_site_label
 _atom_site_symmetry_multiplicity
 _atom_site_fract_x
 _atom_site_fract_y
 _atom_site_fract_z
 _atom_site_occupancy
  Si  Si0  1  0.33483400  0.68556100  0.48189100  1
  Si  Si1  1  0.66516600  0.18556100  0.51810900  1
  Ge  Ge2  1  0.98050800  0.68386900  0.82433800  1
  Ge  Ge3  1  0.01949200  0.18386900  0.17566200  1
  N  N4  1  0.91306200  0.32487400  0.82639000  1
  N  N5  1  0.34721600  0.34532100  0.42529600  1
  N  N6  1  0.65278400  0.84532100  0.57470400  1
  N  N7  1  0.08693800  0.82487400  0.17361000  1
  O  O8  1  0.25112700  0.75637700  0.73204000  1
  O  O9  1  0.74887300  0.25637700  0.26796000  1
