# generated using pymatgen
data_PW4Cl11
_symmetry_space_group_name_H-M   'P 1'
_cell_length_a   10.04242800
_cell_length_b   14.22018000
_cell_length_c   11.52383900
_cell_angle_alpha   90.00000000
_cell_angle_beta   90.00000000
_cell_angle_gamma   90.00000000
_symmetry_Int_Tables_number   1
_chemical_formula_structural   PW4Cl11
_chemical_formula_sum   'P4 W16 Cl44'
_cell_volume   1645.66337025
_cell_formula_units_Z   4
loop_
 _symmetry_equiv_pos_site_id
 _symmetry_equiv_pos_as_xyz
  1  'x, y, z'
loop_
 _atom_site_type_symbol
 _atom_site_label
 _atom_site_symmetry_multiplicity
 _atom_site_fract_x
 _atom_site_fract_y
 _atom_site_fract_z
 _atom_site_occupancy
  P  P0  1  0.50000000  0.82416400  0.25000000  1
  P  P1  1  0.50000000  0.17583600  0.75000000  1
  P  P2  1  0.00000000  0.32416400  0.25000000  1
  P  P3  1  0.00000000  0.67583600  0.75000000  1
  W  W4  1  0.36978150  0.72512050  0.37214800  1
  W  W5  1  0.36978150  0.27487950  0.62785200  1
  W  W6  1  0.63021850  0.27487950  0.62785200  1
  W  W7  1  0.63021850  0.72512050  0.37214800  1
  W  W8  1  0.36978150  0.72512050  0.12785200  1
  W  W9  1  0.36978150  0.27487950  0.87214800  1
  W  W10  1  0.63021850  0.27487950  0.87214800  1
  W  W11  1  0.63021850  0.72512050  0.12785200  1
  W  W12  1  0.86978150  0.22512050  0.37214800  1
  W  W13  1  0.86978150  0.77487950  0.62785200  1
  W  W14  1  0.13021850  0.77487950  0.62785200  1
  W  W15  1  0.13021850  0.22512050  0.37214800  1
  W  W16  1  0.86978150  0.22512050  0.12785200  1
  W  W17  1  0.86978150  0.77487950  0.87214800  1
  W  W18  1  0.13021850  0.77487950  0.87214800  1
  W  W19  1  0.13021850  0.22512050  0.12785200  1
  Cl  Cl20  1  0.50000000  0.62998800  0.99392000  1
  Cl  Cl21  1  0.50000000  0.37001200  0.00608000  1
  Cl  Cl22  1  0.32952000  0.84922800  0.98654300  1
  Cl  Cl23  1  0.32952000  0.15077200  0.01345700  1
  Cl  Cl24  1  0.67048000  0.15077200  0.01345700  1
  Cl  Cl25  1  0.67048000  0.84922800  0.98654300  1
  Cl  Cl26  1  0.50000000  0.62998800  0.50608000  1
  Cl  Cl27  1  0.50000000  0.37001200  0.49392000  1
  Cl  Cl28  1  0.32952000  0.84922800  0.51345700  1
  Cl  Cl29  1  0.32952000  0.15077200  0.48654300  1
  Cl  Cl30  1  0.67048000  0.15077200  0.48654300  1
  Cl  Cl31  1  0.67048000  0.84922800  0.51345700  1
  Cl  Cl32  1  0.84310450  0.08811450  0.25000000  1
  Cl  Cl33  1  0.84310450  0.91188550  0.75000000  1
  Cl  Cl34  1  0.15689550  0.91188550  0.75000000  1
  Cl  Cl35  1  0.15689550  0.08811450  0.25000000  1
  Cl  Cl36  1  0.50000000  0.96789700  0.25000000  1
  Cl  Cl37  1  0.50000000  0.03210300  0.75000000  1
  Cl  Cl38  1  0.69198350  0.29707250  0.25000000  1
  Cl  Cl39  1  0.69198350  0.70292750  0.75000000  1
  Cl  Cl40  1  0.30801650  0.70292750  0.75000000  1
  Cl  Cl41  1  0.30801650  0.29707250  0.25000000  1
  Cl  Cl42  1  0.00000000  0.12998800  0.99392000  1
  Cl  Cl43  1  0.00000000  0.87001200  0.00608000  1
  Cl  Cl44  1  0.82952000  0.34922800  0.98654300  1
  Cl  Cl45  1  0.82952000  0.65077200  0.01345700  1
  Cl  Cl46  1  0.17048000  0.65077200  0.01345700  1
  Cl  Cl47  1  0.17048000  0.34922800  0.98654300  1
  Cl  Cl48  1  0.00000000  0.12998800  0.50608000  1
  Cl  Cl49  1  0.00000000  0.87001200  0.49392000  1
  Cl  Cl50  1  0.82952000  0.34922800  0.51345700  1
  Cl  Cl51  1  0.82952000  0.65077200  0.48654300  1
  Cl  Cl52  1  0.17048000  0.65077200  0.48654300  1
  Cl  Cl53  1  0.17048000  0.34922800  0.51345700  1
  Cl  Cl54  1  0.34310450  0.58811450  0.25000000  1
  Cl  Cl55  1  0.34310450  0.41188550  0.75000000  1
  Cl  Cl56  1  0.65689550  0.41188550  0.75000000  1
  Cl  Cl57  1  0.65689550  0.58811450  0.25000000  1
  Cl  Cl58  1  0.00000000  0.46789700  0.25000000  1
  Cl  Cl59  1  0.00000000  0.53210300  0.75000000  1
  Cl  Cl60  1  0.19198350  0.79707250  0.25000000  1
  Cl  Cl61  1  0.19198350  0.20292750  0.75000000  1
  Cl  Cl62  1  0.80801650  0.20292750  0.75000000  1
  Cl  Cl63  1  0.80801650  0.79707250  0.25000000  1
