# generated using pymatgen
data_GeTe
_symmetry_space_group_name_H-M   'P 1'
_cell_length_a   4.23066609
_cell_length_b   4.23066609
_cell_length_c   10.88957974
_cell_angle_alpha   90.00000000
_cell_angle_beta   90.00000000
_cell_angle_gamma   120.00000000
_symmetry_Int_Tables_number   1
_chemical_formula_structural   GeTe
_chemical_formula_sum   'Ge3 Te3'
_cell_volume   168.79487269
_cell_formula_units_Z   3
loop_
 _symmetry_equiv_pos_site_id
 _symmetry_equiv_pos_as_xyz
  1  'x, y, z'
loop_
 _atom_site_type_symbol
 _atom_site_label
 _atom_site_symmetry_multiplicity
 _atom_site_fract_x
 _atom_site_fract_y
 _atom_site_fract_z
 _atom_site_occupancy
  Ge  Ge0  1  0.00000000  0.00000000  0.00494000  1
  Ge  Ge1  1  0.66666667  0.33333333  0.33827333  1
  Ge  Ge2  1  0.33333333  0.66666667  0.67160667  1
  Te  Te3  1  0.33333333  0.66666667  0.14072667  1
  Te  Te4  1  0.00000000  0.00000000  0.47406000  1
  Te  Te5  1  0.66666667  0.33333333  0.80739333  1
