# generated using pymatgen
data_Li8SeN2
_symmetry_space_group_name_H-M   'P 1'
_cell_length_a   7.09392200
_cell_length_b   7.09392200
_cell_length_c   9.99938400
_cell_angle_alpha   90.00000000
_cell_angle_beta   90.00000000
_cell_angle_gamma   90.00000000
_symmetry_Int_Tables_number   1
_chemical_formula_structural   Li8SeN2
_chemical_formula_sum   'Li32 Se4 N8'
_cell_volume   503.20629400
_cell_formula_units_Z   4
loop_
 _symmetry_equiv_pos_site_id
 _symmetry_equiv_pos_as_xyz
  1  'x, y, z'
loop_
 _atom_site_type_symbol
 _atom_site_label
 _atom_site_symmetry_multiplicity
 _atom_site_fract_x
 _atom_site_fract_y
 _atom_site_fract_z
 _atom_site_occupancy
  Li  Li0  1  0.50000000  0.00000000  0.11372000  1
  Li  Li1  1  0.31133600  0.73288300  0.42433500  1
  Li  Li2  1  0.18866400  0.23288300  0.92433500  1
  Li  Li3  1  0.34546100  0.00000000  0.30874400  1
  Li  Li4  1  0.65453900  0.00000000  0.30874400  1
  Li  Li5  1  0.00000000  0.00000000  0.36372000  1
  Li  Li6  1  0.50000000  0.34546100  0.05874400  1
  Li  Li7  1  0.26711700  0.81133600  0.67433500  1
  Li  Li8  1  0.23288300  0.31133600  0.17433500  1
  Li  Li9  1  0.00000000  0.50000000  0.03663100  1
  Li  Li10  1  0.31133600  0.26711700  0.42433500  1
  Li  Li11  1  0.18866400  0.76711700  0.92433500  1
  Li  Li12  1  0.00000000  0.15453900  0.55874400  1
  Li  Li13  1  0.00000000  0.00000000  0.78663100  1
  Li  Li14  1  0.26711700  0.18866400  0.67433500  1
  Li  Li15  1  0.23288300  0.68866400  0.17433500  1
  Li  Li16  1  0.00000000  0.50000000  0.61372000  1
  Li  Li17  1  0.81133600  0.23288300  0.92433500  1
  Li  Li18  1  0.68866400  0.73288300  0.42433500  1
  Li  Li19  1  0.84546100  0.50000000  0.80874400  1
  Li  Li20  1  0.15453900  0.50000000  0.80874400  1
  Li  Li21  1  0.50000000  0.50000000  0.86372000  1
  Li  Li22  1  0.00000000  0.84546100  0.55874400  1
  Li  Li23  1  0.76711700  0.31133600  0.17433500  1
  Li  Li24  1  0.73288300  0.81133600  0.67433500  1
  Li  Li25  1  0.50000000  0.00000000  0.53663100  1
  Li  Li26  1  0.81133600  0.76711700  0.92433500  1
  Li  Li27  1  0.68866400  0.26711700  0.42433500  1
  Li  Li28  1  0.50000000  0.65453900  0.05874400  1
  Li  Li29  1  0.50000000  0.50000000  0.28663100  1
  Li  Li30  1  0.76711700  0.68866400  0.17433500  1
  Li  Li31  1  0.73288300  0.18866400  0.67433500  1
  Se  Se32  1  0.00000000  0.00000000  0.10052100  1
  Se  Se33  1  0.00000000  0.50000000  0.35052100  1
  Se  Se34  1  0.50000000  0.50000000  0.60052100  1
  Se  Se35  1  0.50000000  0.00000000  0.85052100  1
  N  N36  1  0.50000000  0.76878200  0.24973600  1
  N  N37  1  0.50000000  0.23121800  0.24973600  1
  N  N38  1  0.23121800  0.00000000  0.49973600  1
  N  N39  1  0.26878200  0.50000000  0.99973600  1
  N  N40  1  0.00000000  0.26878200  0.74973600  1
  N  N41  1  0.00000000  0.73121800  0.74973600  1
  N  N42  1  0.73121800  0.50000000  0.99973600  1
  N  N43  1  0.76878200  0.00000000  0.49973600  1
