# generated using pymatgen
data_AgRhO2
_symmetry_space_group_name_H-M   'P 1'
_cell_length_a   3.12317990
_cell_length_b   3.12317990
_cell_length_c   12.63870000
_cell_angle_alpha   90.00000000
_cell_angle_beta   90.00000000
_cell_angle_gamma   120.00000000
_symmetry_Int_Tables_number   1
_chemical_formula_structural   AgRhO2
_chemical_formula_sum   'Ag2 Rh2 O4'
_cell_volume   106.76454172
_cell_formula_units_Z   2
loop_
 _symmetry_equiv_pos_site_id
 _symmetry_equiv_pos_as_xyz
  1  'x, y, z'
loop_
 _atom_site_type_symbol
 _atom_site_label
 _atom_site_symmetry_multiplicity
 _atom_site_fract_x
 _atom_site_fract_y
 _atom_site_fract_z
 _atom_site_occupancy
  Ag  Ag0  1  0.33333333  0.66666667  0.25000000  1
  Ag  Ag1  1  0.66666667  0.33333333  0.75000000  1
  Rh  Rh2  1  0.00000000  0.00000000  0.50000000  1
  Rh  Rh3  1  0.00000000  0.00000000  0.00000000  1
  O  O4  1  0.33333333  0.66666667  0.08023000  1
  O  O5  1  0.33333333  0.66666667  0.41977000  1
  O  O6  1  0.66666667  0.33333333  0.58023000  1
  O  O7  1  0.66666667  0.33333333  0.91977000  1
