# generated using pymatgen
data_Rb3Sb2Au3
_symmetry_space_group_name_H-M   'P 1'
_cell_length_a   6.65780812
_cell_length_b   6.65780812
_cell_length_c   22.03377897
_cell_angle_alpha   90.00000000
_cell_angle_beta   90.00000000
_cell_angle_gamma   120.00000000
_symmetry_Int_Tables_number   1
_chemical_formula_structural   Rb3Sb2Au3
_chemical_formula_sum   'Rb9 Sb6 Au9'
_cell_volume   845.82821709
_cell_formula_units_Z   3
loop_
 _symmetry_equiv_pos_site_id
 _symmetry_equiv_pos_as_xyz
  1  'x, y, z'
loop_
 _atom_site_type_symbol
 _atom_site_label
 _atom_site_symmetry_multiplicity
 _atom_site_fract_x
 _atom_site_fract_y
 _atom_site_fract_z
 _atom_site_occupancy
  Rb  Rb0  1  0.33333333  0.66666667  0.16666667  1
  Rb  Rb1  1  0.00000000  0.00000000  0.08178100  1
  Rb  Rb2  1  0.66666667  0.33333333  0.25155233  1
  Rb  Rb3  1  1.00000000  1.00000000  0.50000000  1
  Rb  Rb4  1  0.66666667  0.33333333  0.41511433  1
  Rb  Rb5  1  0.33333333  0.66666667  0.58488567  1
  Rb  Rb6  1  0.66666667  0.33333333  0.83333333  1
  Rb  Rb7  1  0.33333333  0.66666667  0.74844767  1
  Rb  Rb8  1  0.00000000  0.00000000  0.91821900  1
  Sb  Sb9  1  0.66666667  0.33333333  0.08559833  1
  Sb  Sb10  1  0.00000000  0.00000000  0.24773500  1
  Sb  Sb11  1  0.33333333  0.66666667  0.41893167  1
  Sb  Sb12  1  0.66666667  0.33333333  0.58106833  1
  Sb  Sb13  1  0.00000000  0.00000000  0.75226500  1
  Sb  Sb14  1  0.33333333  0.66666667  0.91440167  1
  Au  Au15  1  0.50000000  0.50000000  0.00000000  1
  Au  Au16  1  0.00000000  0.50000000  0.00000000  1
  Au  Au17  1  0.50000000  0.00000000  0.00000000  1
  Au  Au18  1  0.16666667  0.83333333  0.33333333  1
  Au  Au19  1  0.66666667  0.83333333  0.33333333  1
  Au  Au20  1  0.16666667  0.33333333  0.33333333  1
  Au  Au21  1  0.83333333  0.16666667  0.66666667  1
  Au  Au22  1  0.33333333  0.16666667  0.66666667  1
  Au  Au23  1  0.83333333  0.66666667  0.66666667  1
