# generated using pymatgen
data_Rb2MgH4
_symmetry_space_group_name_H-M   'P 1'
_cell_length_a   8.22761800
_cell_length_b   10.49181200
_cell_length_c   8.80872700
_cell_angle_alpha   90.00000000
_cell_angle_beta   90.00000000
_cell_angle_gamma   90.00000000
_symmetry_Int_Tables_number   1
_chemical_formula_structural   Rb2MgH4
_chemical_formula_sum   'Rb8 Mg4 H16'
_cell_volume   760.39240464
_cell_formula_units_Z   4
loop_
 _symmetry_equiv_pos_site_id
 _symmetry_equiv_pos_as_xyz
  1  'x, y, z'
loop_
 _atom_site_type_symbol
 _atom_site_label
 _atom_site_symmetry_multiplicity
 _atom_site_fract_x
 _atom_site_fract_y
 _atom_site_fract_z
 _atom_site_occupancy
  Rb  Rb0  1  0.50000000  0.00000000  0.50000000  1
  Rb  Rb1  1  0.50000000  0.00000000  0.00000000  1
  Rb  Rb2  1  0.50000000  0.59048700  0.75000000  1
  Rb  Rb3  1  0.50000000  0.40951300  0.25000000  1
  Rb  Rb4  1  0.00000000  0.50000000  0.50000000  1
  Rb  Rb5  1  0.00000000  0.50000000  0.00000000  1
  Rb  Rb6  1  0.00000000  0.09048700  0.75000000  1
  Rb  Rb7  1  0.00000000  0.90951300  0.25000000  1
  Mg  Mg8  1  0.50000000  0.24415800  0.75000000  1
  Mg  Mg9  1  0.50000000  0.75584200  0.25000000  1
  Mg  Mg10  1  0.00000000  0.74415800  0.75000000  1
  Mg  Mg11  1  0.00000000  0.25584200  0.25000000  1
  H  H12  1  0.66578500  0.12005800  0.75000000  1
  H  H13  1  0.66578500  0.87994200  0.25000000  1
  H  H14  1  0.50000000  0.66153900  0.07343100  1
  H  H15  1  0.50000000  0.66153900  0.42656900  1
  H  H16  1  0.50000000  0.33846100  0.92656900  1
  H  H17  1  0.50000000  0.33846100  0.57343100  1
  H  H18  1  0.33421500  0.12005800  0.75000000  1
  H  H19  1  0.33421500  0.87994200  0.25000000  1
  H  H20  1  0.16578500  0.62005800  0.75000000  1
  H  H21  1  0.16578500  0.37994200  0.25000000  1
  H  H22  1  0.00000000  0.16153900  0.07343100  1
  H  H23  1  0.00000000  0.16153900  0.42656900  1
  H  H24  1  0.00000000  0.83846100  0.92656900  1
  H  H25  1  0.00000000  0.83846100  0.57343100  1
  H  H26  1  0.83421500  0.62005800  0.75000000  1
  H  H27  1  0.83421500  0.37994200  0.25000000  1
