# generated using pymatgen
data_RbAuS
_symmetry_space_group_name_H-M   'P 1'
_cell_length_a   6.74298800
_cell_length_b   8.16270000
_cell_length_c   7.09793500
_cell_angle_alpha   90.00000000
_cell_angle_beta   90.00000000
_cell_angle_gamma   90.00000000
_symmetry_Int_Tables_number   1
_chemical_formula_structural   RbAuS
_chemical_formula_sum   'Rb4 Au4 S4'
_cell_volume   390.67735621
_cell_formula_units_Z   4
loop_
 _symmetry_equiv_pos_site_id
 _symmetry_equiv_pos_as_xyz
  1  'x, y, z'
loop_
 _atom_site_type_symbol
 _atom_site_label
 _atom_site_symmetry_multiplicity
 _atom_site_fract_x
 _atom_site_fract_y
 _atom_site_fract_z
 _atom_site_occupancy
  Rb  Rb0  1  0.50000000  0.87554900  0.25000000  1
  Rb  Rb1  1  0.50000000  0.12445100  0.75000000  1
  Rb  Rb2  1  0.00000000  0.37554900  0.25000000  1
  Rb  Rb3  1  0.00000000  0.62445100  0.75000000  1
  Au  Au4  1  0.00000000  0.00000000  0.00000000  1
  Au  Au5  1  0.00000000  0.00000000  0.50000000  1
  Au  Au6  1  0.50000000  0.50000000  0.00000000  1
  Au  Au7  1  0.50000000  0.50000000  0.50000000  1
  S  S8  1  0.50000000  0.31371600  0.25000000  1
  S  S9  1  0.50000000  0.68628400  0.75000000  1
  S  S10  1  0.00000000  0.81371600  0.25000000  1
  S  S11  1  0.00000000  0.18628400  0.75000000  1
