# generated using pymatgen
data_MgH8(ClO6)2
_symmetry_space_group_name_H-M   'P 1'
_cell_length_a   11.01800600
_cell_length_b   8.16590200
_cell_length_c   6.06050500
_cell_angle_alpha   90.00000000
_cell_angle_beta   112.21253978
_cell_angle_gamma   90.00000000
_symmetry_Int_Tables_number   1
_chemical_formula_structural   MgH8(ClO6)2
_chemical_formula_sum   'Mg2 H16 Cl4 O24'
_cell_volume   504.80943926
_cell_formula_units_Z   2
loop_
 _symmetry_equiv_pos_site_id
 _symmetry_equiv_pos_as_xyz
  1  'x, y, z'
loop_
 _atom_site_type_symbol
 _atom_site_label
 _atom_site_symmetry_multiplicity
 _atom_site_fract_x
 _atom_site_fract_y
 _atom_site_fract_z
 _atom_site_occupancy
  Mg  Mg0  1  0.50000000  0.50970300  0.50000000  1
  Mg  Mg1  1  0.00000000  0.00970300  0.50000000  1
  H  H2  1  0.19426150  0.90543250  0.37230400  1
  H  H3  1  0.13222700  0.03898300  0.18020700  1
  H  H4  1  0.45510700  0.83224200  0.36287900  1
  H  H5  1  0.54489300  0.83224200  0.63712100  1
  H  H6  1  0.45302500  0.18404500  0.36451700  1
  H  H7  1  0.80573850  0.90543250  0.62769600  1
  H  H8  1  0.54697500  0.18404500  0.63548300  1
  H  H9  1  0.86777300  0.03898300  0.81979300  1
  H  H10  1  0.69426150  0.40543250  0.37230400  1
  H  H11  1  0.63222700  0.53898300  0.18020700  1
  H  H12  1  0.95510700  0.33224200  0.36287900  1
  H  H13  1  0.04489300  0.33224200  0.63712100  1
  H  H14  1  0.95302500  0.68404500  0.36451700  1
  H  H15  1  0.30573850  0.40543250  0.62769600  1
  H  H16  1  0.04697500  0.68404500  0.63548300  1
  H  H17  1  0.36777300  0.53898300  0.81979300  1
  Cl  Cl18  1  0.29931900  0.01663600  0.90801700  1
  Cl  Cl19  1  0.70068100  0.01663600  0.09198300  1
  Cl  Cl20  1  0.79931900  0.51663600  0.90801700  1
  Cl  Cl21  1  0.20068100  0.51663600  0.09198300  1
  O  O22  1  0.13698050  0.00117950  0.33656100  1
  O  O23  1  0.15448750  0.01925850  0.85557400  1
  O  O24  1  0.32947950  0.87438050  0.79704500  1
  O  O25  1  0.50000000  0.76093300  0.50000000  1
  O  O26  1  0.36485800  0.00536000  0.16903300  1
  O  O27  1  0.33654400  0.16714300  0.82629100  1
  O  O28  1  0.67052050  0.87438050  0.20295500  1
  O  O29  1  0.63514200  0.00536000  0.83096700  1
  O  O30  1  0.50000000  0.25584400  0.50000000  1
  O  O31  1  0.66345600  0.16714300  0.17370900  1
  O  O32  1  0.86301950  0.00117950  0.66343900  1
  O  O33  1  0.84551250  0.01925850  0.14442600  1
  O  O34  1  0.63698050  0.50117950  0.33656100  1
  O  O35  1  0.65448750  0.51925850  0.85557400  1
  O  O36  1  0.82947950  0.37438050  0.79704500  1
  O  O37  1  0.00000000  0.26093300  0.50000000  1
  O  O38  1  0.86485800  0.50536000  0.16903300  1
  O  O39  1  0.83654400  0.66714300  0.82629100  1
  O  O40  1  0.17052050  0.37438050  0.20295500  1
  O  O41  1  0.13514200  0.50536000  0.83096700  1
  O  O42  1  0.00000000  0.75584400  0.50000000  1
  O  O43  1  0.16345600  0.66714300  0.17370900  1
  O  O44  1  0.36301950  0.50117950  0.66343900  1
  O  O45  1  0.34551250  0.51925850  0.14442600  1
