# generated using pymatgen
data_CsAsF6
_symmetry_space_group_name_H-M   'P 1'
_cell_length_a   7.95139285
_cell_length_b   7.95139285
_cell_length_c   8.14265401
_cell_angle_alpha   90.00000000
_cell_angle_beta   90.00000000
_cell_angle_gamma   120.00000000
_symmetry_Int_Tables_number   1
_chemical_formula_structural   CsAsF6
_chemical_formula_sum   'Cs3 As3 F18'
_cell_volume   445.84411206
_cell_formula_units_Z   3
loop_
 _symmetry_equiv_pos_site_id
 _symmetry_equiv_pos_as_xyz
  1  'x, y, z'
loop_
 _atom_site_type_symbol
 _atom_site_label
 _atom_site_symmetry_multiplicity
 _atom_site_fract_x
 _atom_site_fract_y
 _atom_site_fract_z
 _atom_site_occupancy
  Cs  Cs0  1  0.00000000  0.00000000  0.50000000  1
  Cs  Cs1  1  0.66666667  0.33333333  0.83333333  1
  Cs  Cs2  1  0.33333333  0.66666667  0.16666667  1
  As  As3  1  0.00000000  0.00000000  0.00000000  1
  As  As4  1  0.66666667  0.33333333  0.33333333  1
  As  As5  1  0.33333333  0.66666667  0.66666667  1
  F  F6  1  0.73476133  0.19555367  0.46033267  1
  F  F7  1  0.80444633  0.53920767  0.46033267  1
  F  F8  1  0.53920767  0.73476133  0.53966733  1
  F  F9  1  0.19555367  0.46079233  0.53966733  1
  F  F10  1  0.26523867  0.80444633  0.53966733  1
  F  F11  1  0.46079233  0.26523867  0.46033267  1
  F  F12  1  0.40142800  0.52888700  0.79366600  1
  F  F13  1  0.47111300  0.87254100  0.79366600  1
  F  F14  1  0.20587433  0.06809467  0.87300067  1
  F  F15  1  0.86222033  0.79412567  0.87300067  1
  F  F16  1  0.93190533  0.13777967  0.87300067  1
  F  F17  1  0.12745900  0.59857200  0.79366600  1
  F  F18  1  0.06809467  0.86222033  0.12699933  1
  F  F19  1  0.13777967  0.20587433  0.12699933  1
  F  F20  1  0.87254100  0.40142800  0.20633400  1
  F  F21  1  0.52888700  0.12745900  0.20633400  1
  F  F22  1  0.59857200  0.47111300  0.20633400  1
  F  F23  1  0.79412567  0.93190533  0.12699933  1
