# generated using pymatgen
data_AgAsO2
_symmetry_space_group_name_H-M   'P 1'
_cell_length_a   9.50176200
_cell_length_b   4.59789000
_cell_length_c   6.91504916
_cell_angle_alpha   90.00000000
_cell_angle_beta   111.22500440
_cell_angle_gamma   90.00000000
_symmetry_Int_Tables_number   1
_chemical_formula_structural   AgAsO2
_chemical_formula_sum   'Ag4 As4 O8'
_cell_volume   281.61203251
_cell_formula_units_Z   4
loop_
 _symmetry_equiv_pos_site_id
 _symmetry_equiv_pos_as_xyz
  1  'x, y, z'
loop_
 _atom_site_type_symbol
 _atom_site_label
 _atom_site_symmetry_multiplicity
 _atom_site_fract_x
 _atom_site_fract_y
 _atom_site_fract_z
 _atom_site_occupancy
  Ag  Ag0  1  0.61670000  0.01915000  0.82820000  1
  Ag  Ag1  1  0.88330000  0.51915000  0.17180000  1
  Ag  Ag2  1  0.11670000  0.51915000  0.82820000  1
  Ag  Ag3  1  0.38330000  0.01915000  0.17180000  1
  As  As4  1  0.66539000  0.07568000  0.33223000  1
  As  As5  1  0.83461000  0.57568000  0.66777000  1
  As  As6  1  0.16539000  0.57568000  0.33223000  1
  As  As7  1  0.33461000  0.07568000  0.66777000  1
  O  O8  1  0.77405000  0.02287000  0.18025000  1
  O  O9  1  0.72595000  0.52287000  0.81975000  1
  O  O10  1  0.71279000  0.45893000  0.40306000  1
  O  O11  1  0.78721000  0.95893000  0.59694000  1
  O  O12  1  0.27405000  0.52287000  0.18025000  1
  O  O13  1  0.22595000  0.02287000  0.81975000  1
  O  O14  1  0.21279000  0.95893000  0.40306000  1
  O  O15  1  0.28721000  0.45893000  0.59694000  1
