# generated using pymatgen
data_AuClO2
_symmetry_space_group_name_H-M   'P 1'
_cell_length_a   7.33875400
_cell_length_b   11.19243800
_cell_length_c   4.12679400
_cell_angle_alpha   90.00000000
_cell_angle_beta   90.00000000
_cell_angle_gamma   90.00000000
_symmetry_Int_Tables_number   1
_chemical_formula_structural   AuClO2
_chemical_formula_sum   'Au4 Cl4 O8'
_cell_volume   338.96887177
_cell_formula_units_Z   4
loop_
 _symmetry_equiv_pos_site_id
 _symmetry_equiv_pos_as_xyz
  1  'x, y, z'
loop_
 _atom_site_type_symbol
 _atom_site_label
 _atom_site_symmetry_multiplicity
 _atom_site_fract_x
 _atom_site_fract_y
 _atom_site_fract_z
 _atom_site_occupancy
  Au  Au0  1  0.26755900  0.00000000  0.00000000  1
  Au  Au1  1  0.73244100  0.00000000  0.50000000  1
  Au  Au2  1  0.76755900  0.50000000  0.00000000  1
  Au  Au3  1  0.23244100  0.50000000  0.50000000  1
  Cl  Cl4  1  0.50000000  0.87474100  0.25000000  1
  Cl  Cl5  1  0.50000000  0.12525900  0.75000000  1
  Cl  Cl6  1  0.00000000  0.37474100  0.25000000  1
  Cl  Cl7  1  0.00000000  0.62525900  0.75000000  1
  O  O8  1  0.41210650  0.60018250  0.78551900  1
  O  O9  1  0.58789350  0.39981750  0.28551900  1
  O  O10  1  0.41210650  0.39981750  0.21448100  1
  O  O11  1  0.58789350  0.60018250  0.71448100  1
  O  O12  1  0.91210650  0.10018250  0.78551900  1
  O  O13  1  0.08789350  0.89981750  0.28551900  1
  O  O14  1  0.91210650  0.89981750  0.21448100  1
  O  O15  1  0.08789350  0.10018250  0.71448100  1
