# generated using pymatgen
data_SrHfN2
_symmetry_space_group_name_H-M   'P 1'
_cell_length_a   3.35672621
_cell_length_b   3.35672621
_cell_length_c   17.76608401
_cell_angle_alpha   90.00000000
_cell_angle_beta   90.00000000
_cell_angle_gamma   120.00000000
_symmetry_Int_Tables_number   1
_chemical_formula_structural   SrHfN2
_chemical_formula_sum   'Sr3 Hf3 N6'
_cell_volume   173.36210937
_cell_formula_units_Z   3
loop_
 _symmetry_equiv_pos_site_id
 _symmetry_equiv_pos_as_xyz
  1  'x, y, z'
loop_
 _atom_site_type_symbol
 _atom_site_label
 _atom_site_symmetry_multiplicity
 _atom_site_fract_x
 _atom_site_fract_y
 _atom_site_fract_z
 _atom_site_occupancy
  Sr  Sr0  1  0.00000000  0.00000000  0.00000000  1
  Sr  Sr1  1  0.66666667  0.33333333  0.33333333  1
  Sr  Sr2  1  0.33333333  0.66666667  0.66666667  1
  Hf  Hf3  1  0.33333333  0.66666667  0.16666667  1
  Hf  Hf4  1  1.00000000  1.00000000  0.50000000  1
  Hf  Hf5  1  0.66666667  0.33333333  0.83333333  1
  N  N6  1  0.00000000  0.00000000  0.23263200  1
  N  N7  1  0.66666667  0.33333333  0.10070133  1
  N  N8  1  0.66666667  0.33333333  0.56596533  1
  N  N9  1  0.33333333  0.66666667  0.43403467  1
  N  N10  1  0.33333333  0.66666667  0.89929867  1
  N  N11  1  0.00000000  0.00000000  0.76736800  1
