# generated using pymatgen
data_KDy(CO3)2
_symmetry_space_group_name_H-M   'P 1'
_cell_length_a   8.49696400
_cell_length_b   9.63250800
_cell_length_c   7.06981103
_cell_angle_alpha   90.00000000
_cell_angle_beta   110.45339754
_cell_angle_gamma   90.00000000
_symmetry_Int_Tables_number   1
_chemical_formula_structural   KDy(CO3)2
_chemical_formula_sum   'K4 Dy4 C8 O24'
_cell_volume   542.16377386
_cell_formula_units_Z   4
loop_
 _symmetry_equiv_pos_site_id
 _symmetry_equiv_pos_as_xyz
  1  'x, y, z'
loop_
 _atom_site_type_symbol
 _atom_site_label
 _atom_site_symmetry_multiplicity
 _atom_site_fract_x
 _atom_site_fract_y
 _atom_site_fract_z
 _atom_site_occupancy
  K  K0  1  0.50000000  0.61939100  0.25000000  1
  K  K1  1  0.50000000  0.38060900  0.75000000  1
  K  K2  1  0.00000000  0.11939100  0.25000000  1
  K  K3  1  0.00000000  0.88060900  0.75000000  1
  Dy  Dy4  1  0.50000000  0.09242400  0.25000000  1
  Dy  Dy5  1  0.50000000  0.90757600  0.75000000  1
  Dy  Dy6  1  0.00000000  0.59242400  0.25000000  1
  Dy  Dy7  1  0.00000000  0.40757600  0.75000000  1
  C  C8  1  0.72973500  0.12639100  0.74879100  1
  C  C9  1  0.27026500  0.12639100  0.75120900  1
  C  C10  1  0.27026500  0.87360900  0.25120900  1
  C  C11  1  0.72973500  0.87360900  0.24879100  1
  C  C12  1  0.22973500  0.62639100  0.74879100  1
  C  C13  1  0.77026500  0.62639100  0.75120900  1
  C  C14  1  0.77026500  0.37360900  0.25120900  1
  C  C15  1  0.22973500  0.37360900  0.24879100  1
  O  O16  1  0.32418350  0.26790850  0.26593400  1
  O  O17  1  0.67581650  0.26790850  0.23406600  1
  O  O18  1  0.67581650  0.73209150  0.73406600  1
  O  O19  1  0.32418350  0.73209150  0.76593400  1
  O  O20  1  0.76741400  0.97514100  0.37698600  1
  O  O21  1  0.23258600  0.97514100  0.12301400  1
  O  O22  1  0.23258600  0.02485900  0.62301400  1
  O  O23  1  0.76741400  0.02485900  0.87698600  1
  O  O24  1  0.58286950  0.88304150  0.10111000  1
  O  O25  1  0.41713050  0.88304150  0.39889000  1
  O  O26  1  0.41713050  0.11695850  0.89889000  1
  O  O27  1  0.58286950  0.11695850  0.60111000  1
  O  O28  1  0.82418350  0.76790850  0.26593400  1
  O  O29  1  0.17581650  0.76790850  0.23406600  1
  O  O30  1  0.17581650  0.23209150  0.73406600  1
  O  O31  1  0.82418350  0.23209150  0.76593400  1
  O  O32  1  0.26741400  0.47514100  0.37698600  1
  O  O33  1  0.73258600  0.47514100  0.12301400  1
  O  O34  1  0.73258600  0.52485900  0.62301400  1
  O  O35  1  0.26741400  0.52485900  0.87698600  1
  O  O36  1  0.08286950  0.38304150  0.10111000  1
  O  O37  1  0.91713050  0.38304150  0.39889000  1
  O  O38  1  0.91713050  0.61695850  0.89889000  1
  O  O39  1  0.08286950  0.61695850  0.60111000  1
