# generated using pymatgen
data_K2Al2O3F2
_symmetry_space_group_name_H-M   'P 1'
_cell_length_a   11.38695200
_cell_length_b   8.28617200
_cell_length_c   6.18684024
_cell_angle_alpha   90.00000000
_cell_angle_beta   91.26348520
_cell_angle_gamma   90.00000000
_symmetry_Int_Tables_number   1
_chemical_formula_structural   K2Al2O3F2
_chemical_formula_sum   'K8 Al8 O12 F8'
_cell_volume   583.61269492
_cell_formula_units_Z   4
loop_
 _symmetry_equiv_pos_site_id
 _symmetry_equiv_pos_as_xyz
  1  'x, y, z'
loop_
 _atom_site_type_symbol
 _atom_site_label
 _atom_site_symmetry_multiplicity
 _atom_site_fract_x
 _atom_site_fract_y
 _atom_site_fract_z
 _atom_site_occupancy
  K  K0  1  0.15823600  0.00000000  0.66981800  1
  K  K1  1  0.39844300  0.00000000  0.25585800  1
  K  K2  1  0.60155700  0.00000000  0.74414200  1
  K  K3  1  0.84176400  0.00000000  0.33018200  1
  K  K4  1  0.65823600  0.50000000  0.66981800  1
  K  K5  1  0.89844300  0.50000000  0.25585800  1
  K  K6  1  0.10155700  0.50000000  0.74414200  1
  K  K7  1  0.34176400  0.50000000  0.33018200  1
  Al  Al8  1  0.37474100  0.70094300  0.85520700  1
  Al  Al9  1  0.62525900  0.70094300  0.14479300  1
  Al  Al10  1  0.37474100  0.29905700  0.85520700  1
  Al  Al11  1  0.62525900  0.29905700  0.14479300  1
  Al  Al12  1  0.87474100  0.20094300  0.85520700  1
  Al  Al13  1  0.12525900  0.20094300  0.14479300  1
  Al  Al14  1  0.87474100  0.79905700  0.85520700  1
  Al  Al15  1  0.12525900  0.79905700  0.14479300  1
  O  O16  1  0.75000000  0.25000000  0.00000000  1
  O  O17  1  0.12209500  0.00000000  0.23316700  1
  O  O18  1  0.50000000  0.76214700  0.00000000  1
  O  O19  1  0.75000000  0.75000000  0.00000000  1
  O  O20  1  0.50000000  0.23785300  0.00000000  1
  O  O21  1  0.87790500  0.00000000  0.76683300  1
  O  O22  1  0.25000000  0.75000000  0.00000000  1
  O  O23  1  0.62209500  0.50000000  0.23316700  1
  O  O24  1  0.00000000  0.26214700  0.00000000  1
  O  O25  1  0.25000000  0.25000000  0.00000000  1
  O  O26  1  0.00000000  0.73785300  0.00000000  1
  O  O27  1  0.37790500  0.50000000  0.76683300  1
  F  F28  1  0.36859450  0.81491450  0.61401900  1
  F  F29  1  0.63140550  0.81491450  0.38598100  1
  F  F30  1  0.36859450  0.18508550  0.61401900  1
  F  F31  1  0.63140550  0.18508550  0.38598100  1
  F  F32  1  0.86859450  0.31491450  0.61401900  1
  F  F33  1  0.13140550  0.31491450  0.38598100  1
  F  F34  1  0.86859450  0.68508550  0.61401900  1
  F  F35  1  0.13140550  0.68508550  0.38598100  1
