# generated using pymatgen
data_RbSnF3
_symmetry_space_group_name_H-M   'P 1'
_cell_length_a   4.60990800
_cell_length_b   4.63933808
_cell_length_c   5.30034890
_cell_angle_alpha   96.68175125
_cell_angle_beta   94.43941503
_cell_angle_gamma   89.56276906
_symmetry_Int_Tables_number   1
_chemical_formula_structural   RbSnF3
_chemical_formula_sum   'Rb1 Sn1 F3'
_cell_volume   112.25028907
_cell_formula_units_Z   1
loop_
 _symmetry_equiv_pos_site_id
 _symmetry_equiv_pos_as_xyz
  1  'x, y, z'
loop_
 _atom_site_type_symbol
 _atom_site_label
 _atom_site_symmetry_multiplicity
 _atom_site_fract_x
 _atom_site_fract_y
 _atom_site_fract_z
 _atom_site_occupancy
  Rb  Rb0  1  0.02360400  0.03384500  0.92031400  1
  Sn  Sn1  1  0.49258200  0.48529900  0.49055300  1
  F  F2  1  0.97546500  0.49701700  0.56884500  1
  F  F3  1  0.51193800  0.51341300  0.88897000  1
  F  F4  1  0.49641100  0.96042700  0.57131600  1
