# generated using pymatgen
data_Li4NpO5
_symmetry_space_group_name_H-M   'P 1'
_cell_length_a   6.75367600
_cell_length_b   6.75367600
_cell_length_c   4.44188000
_cell_angle_alpha   90.00000000
_cell_angle_beta   90.00000000
_cell_angle_gamma   90.00000000
_symmetry_Int_Tables_number   1
_chemical_formula_structural   Li4NpO5
_chemical_formula_sum   'Li8 Np2 O10'
_cell_volume   202.60365026
_cell_formula_units_Z   2
loop_
 _symmetry_equiv_pos_site_id
 _symmetry_equiv_pos_as_xyz
  1  'x, y, z'
loop_
 _atom_site_type_symbol
 _atom_site_label
 _atom_site_symmetry_multiplicity
 _atom_site_fract_x
 _atom_site_fract_y
 _atom_site_fract_z
 _atom_site_occupancy
  Li  Li0  1  0.31035100  0.08686500  0.50000000  1
  Li  Li1  1  0.41313500  0.81035100  0.00000000  1
  Li  Li2  1  0.58686500  0.18964900  0.00000000  1
  Li  Li3  1  0.68964900  0.91313500  0.50000000  1
  Li  Li4  1  0.81035100  0.58686500  0.00000000  1
  Li  Li5  1  0.91313500  0.31035100  0.50000000  1
  Li  Li6  1  0.08686500  0.68964900  0.50000000  1
  Li  Li7  1  0.18964900  0.41313500  0.00000000  1
  Np  Np8  1  0.00000000  0.00000000  0.00000000  1
  Np  Np9  1  0.50000000  0.50000000  0.50000000  1
  O  O10  1  0.00000000  0.00000000  0.50000000  1
  O  O11  1  0.58676900  0.21511300  0.50000000  1
  O  O12  1  0.71511300  0.91323100  0.00000000  1
  O  O13  1  0.41323100  0.78488700  0.50000000  1
  O  O14  1  0.28488700  0.08676900  0.00000000  1
  O  O15  1  0.50000000  0.50000000  0.00000000  1
  O  O16  1  0.08676900  0.71511300  0.00000000  1
  O  O17  1  0.21511300  0.41323100  0.50000000  1
  O  O18  1  0.91323100  0.28488700  0.00000000  1
  O  O19  1  0.78488700  0.58676900  0.50000000  1
