# generated using pymatgen
data_AgO2F
_symmetry_space_group_name_H-M   'P 1'
_cell_length_a   7.07451600
_cell_length_b   8.04321400
_cell_length_c   4.40860000
_cell_angle_alpha   90.00000000
_cell_angle_beta   90.00000000
_cell_angle_gamma   90.00000000
_symmetry_Int_Tables_number   1
_chemical_formula_structural   AgO2F
_chemical_formula_sum   'Ag4 O8 F4'
_cell_volume   250.85747887
_cell_formula_units_Z   4
loop_
 _symmetry_equiv_pos_site_id
 _symmetry_equiv_pos_as_xyz
  1  'x, y, z'
loop_
 _atom_site_type_symbol
 _atom_site_label
 _atom_site_symmetry_multiplicity
 _atom_site_fract_x
 _atom_site_fract_y
 _atom_site_fract_z
 _atom_site_occupancy
  Ag  Ag0  1  0.28175200  0.00000000  0.00000000  1
  Ag  Ag1  1  0.71824800  0.00000000  0.50000000  1
  Ag  Ag2  1  0.78175200  0.50000000  0.00000000  1
  Ag  Ag3  1  0.21824800  0.50000000  0.50000000  1
  O  O4  1  0.58835850  0.61959150  0.71148600  1
  O  O5  1  0.41164150  0.38040850  0.21148600  1
  O  O6  1  0.41164150  0.61959150  0.78851400  1
  O  O7  1  0.58835850  0.38040850  0.28851400  1
  O  O8  1  0.08835850  0.11959150  0.71148600  1
  O  O9  1  0.91164150  0.88040850  0.21148600  1
  O  O10  1  0.91164150  0.11959150  0.78851400  1
  O  O11  1  0.08835850  0.88040850  0.28851400  1
  F  F12  1  0.50000000  0.87802400  0.25000000  1
  F  F13  1  0.50000000  0.12197600  0.75000000  1
  F  F14  1  0.00000000  0.37802400  0.25000000  1
  F  F15  1  0.00000000  0.62197600  0.75000000  1
