# generated using pymatgen
data_MgCN2
_symmetry_space_group_name_H-M   'P 1'
_cell_length_a   3.30349416
_cell_length_b   3.30349416
_cell_length_c   14.21220812
_cell_angle_alpha   90.00000000
_cell_angle_beta   90.00000000
_cell_angle_gamma   120.00000000
_symmetry_Int_Tables_number   1
_chemical_formula_structural   MgCN2
_chemical_formula_sum   'Mg3 C3 N6'
_cell_volume   134.31956503
_cell_formula_units_Z   3
loop_
 _symmetry_equiv_pos_site_id
 _symmetry_equiv_pos_as_xyz
  1  'x, y, z'
loop_
 _atom_site_type_symbol
 _atom_site_label
 _atom_site_symmetry_multiplicity
 _atom_site_fract_x
 _atom_site_fract_y
 _atom_site_fract_z
 _atom_site_occupancy
  Mg  Mg0  1  0.00000000  0.00000000  0.00000000  1
  Mg  Mg1  1  0.66666667  0.33333333  0.33333333  1
  Mg  Mg2  1  0.33333333  0.66666667  0.66666667  1
  C  C3  1  0.33333333  0.66666667  0.16666667  1
  C  C4  1  1.00000000  1.00000000  0.50000000  1
  C  C5  1  0.66666667  0.33333333  0.83333333  1
  N  N6  1  0.33333333  0.66666667  0.25341367  1
  N  N7  1  0.33333333  0.66666667  0.07991967  1
  N  N8  1  0.00000000  0.00000000  0.58674700  1
  N  N9  1  0.00000000  0.00000000  0.41325300  1
  N  N10  1  0.66666667  0.33333333  0.92008033  1
  N  N11  1  0.66666667  0.33333333  0.74658633  1
