# generated using pymatgen
data_LaMoN3
_symmetry_space_group_name_H-M   'P 1'
_cell_length_a   10.91298000
_cell_length_b   10.13361600
_cell_length_c   6.38211742
_cell_angle_alpha   90.00000000
_cell_angle_beta   108.61013790
_cell_angle_gamma   90.00000000
_symmetry_Int_Tables_number   1
_chemical_formula_structural   LaMoN3
_chemical_formula_sum   'La8 Mo8 N24'
_cell_volume   668.88114442
_cell_formula_units_Z   8
loop_
 _symmetry_equiv_pos_site_id
 _symmetry_equiv_pos_as_xyz
  1  'x, y, z'
loop_
 _atom_site_type_symbol
 _atom_site_label
 _atom_site_symmetry_multiplicity
 _atom_site_fract_x
 _atom_site_fract_y
 _atom_site_fract_z
 _atom_site_occupancy
  La  La0  1  0.00000000  0.68656900  0.75000000  1
  La  La1  1  0.00000000  0.09247600  0.75000000  1
  La  La2  1  0.00000000  0.90752400  0.25000000  1
  La  La3  1  0.00000000  0.31343100  0.25000000  1
  La  La4  1  0.50000000  0.18656900  0.75000000  1
  La  La5  1  0.50000000  0.59247600  0.75000000  1
  La  La6  1  0.50000000  0.40752400  0.25000000  1
  La  La7  1  0.50000000  0.81343100  0.25000000  1
  Mo  Mo8  1  0.20928150  0.58932850  0.25032600  1
  Mo  Mo9  1  0.79071850  0.41067150  0.74967400  1
  Mo  Mo10  1  0.20928150  0.41067150  0.75032600  1
  Mo  Mo11  1  0.79071850  0.58932850  0.24967400  1
  Mo  Mo12  1  0.70928150  0.08932850  0.25032600  1
  Mo  Mo13  1  0.29071850  0.91067150  0.74967400  1
  Mo  Mo14  1  0.70928150  0.91067150  0.75032600  1
  Mo  Mo15  1  0.29071850  0.08932850  0.24967400  1
  N  N16  1  0.13199450  0.74227350  0.14503200  1
  N  N17  1  0.61342300  0.61196800  0.15375500  1
  N  N18  1  0.15046550  0.48140650  0.99031200  1
  N  N19  1  0.86800550  0.74227350  0.35496800  1
  N  N20  1  0.13199450  0.25772650  0.64503200  1
  N  N21  1  0.61342300  0.38803200  0.65375500  1
  N  N22  1  0.84953450  0.51859350  0.00968800  1
  N  N23  1  0.38657700  0.61196800  0.34624500  1
  N  N24  1  0.86800550  0.25772650  0.85496800  1
  N  N25  1  0.84953450  0.48140650  0.50968800  1
  N  N26  1  0.38657700  0.38803200  0.84624500  1
  N  N27  1  0.15046550  0.51859350  0.49031200  1
  N  N28  1  0.63199450  0.24227350  0.14503200  1
  N  N29  1  0.11342300  0.11196800  0.15375500  1
  N  N30  1  0.65046550  0.98140650  0.99031200  1
  N  N31  1  0.36800550  0.24227350  0.35496800  1
  N  N32  1  0.63199450  0.75772650  0.64503200  1
  N  N33  1  0.11342300  0.88803200  0.65375500  1
  N  N34  1  0.34953450  0.01859350  0.00968800  1
  N  N35  1  0.88657700  0.11196800  0.34624500  1
  N  N36  1  0.36800550  0.75772650  0.85496800  1
  N  N37  1  0.34953450  0.98140650  0.50968800  1
  N  N38  1  0.88657700  0.88803200  0.84624500  1
  N  N39  1  0.65046550  0.01859350  0.49031200  1
