# generated using pymatgen
data_LiBeH3
_symmetry_space_group_name_H-M   'P 1'
_cell_length_a   5.84691400
_cell_length_b   10.17312400
_cell_length_c   8.32258400
_cell_angle_alpha   90.00000000
_cell_angle_beta   90.00000000
_cell_angle_gamma   90.00000000
_symmetry_Int_Tables_number   1
_chemical_formula_structural   LiBeH3
_chemical_formula_sum   'Li12 Be12 H36'
_cell_volume   495.03879097
_cell_formula_units_Z   12
loop_
 _symmetry_equiv_pos_site_id
 _symmetry_equiv_pos_as_xyz
  1  'x, y, z'
loop_
 _atom_site_type_symbol
 _atom_site_label
 _atom_site_symmetry_multiplicity
 _atom_site_fract_x
 _atom_site_fract_y
 _atom_site_fract_z
 _atom_site_occupancy
  Li  Li0  1  0.50000000  0.00000000  0.50000000  1
  Li  Li1  1  0.50000000  0.32814600  0.50000000  1
  Li  Li2  1  0.00000000  0.17185400  0.50000000  1
  Li  Li3  1  0.50000000  0.00000000  0.00000000  1
  Li  Li4  1  0.50000000  0.32814600  0.00000000  1
  Li  Li5  1  0.00000000  0.17185400  0.00000000  1
  Li  Li6  1  0.00000000  0.50000000  0.50000000  1
  Li  Li7  1  0.00000000  0.82814600  0.50000000  1
  Li  Li8  1  0.50000000  0.67185400  0.50000000  1
  Li  Li9  1  0.00000000  0.50000000  0.00000000  1
  Li  Li10  1  0.00000000  0.82814600  0.00000000  1
  Li  Li11  1  0.50000000  0.67185400  0.00000000  1
  Be  Be12  1  0.91960600  0.00000000  0.75000000  1
  Be  Be13  1  0.78790350  0.37762850  0.75000000  1
  Be  Be14  1  0.28790350  0.12237150  0.75000000  1
  Be  Be15  1  0.08039400  0.00000000  0.25000000  1
  Be  Be16  1  0.21209650  0.37762850  0.25000000  1
  Be  Be17  1  0.71209650  0.12237150  0.25000000  1
  Be  Be18  1  0.41960600  0.50000000  0.75000000  1
  Be  Be19  1  0.28790350  0.87762850  0.75000000  1
  Be  Be20  1  0.78790350  0.62237150  0.75000000  1
  Be  Be21  1  0.58039400  0.50000000  0.25000000  1
  Be  Be22  1  0.71209650  0.87762850  0.25000000  1
  Be  Be23  1  0.21209650  0.62237150  0.25000000  1
  H  H24  1  0.80839600  0.00000000  0.59922600  1
  H  H25  1  0.84426550  0.32137450  0.60163000  1
  H  H26  1  0.34426550  0.17862550  0.60163000  1
  H  H27  1  0.40943100  0.00000000  0.75000000  1
  H  H28  1  0.54255450  0.37822750  0.75000000  1
  H  H29  1  0.04255450  0.12177250  0.75000000  1
  H  H30  1  0.84426550  0.32137450  0.89837000  1
  H  H31  1  0.34426550  0.17862550  0.89837000  1
  H  H32  1  0.80839600  0.00000000  0.90077400  1
  H  H33  1  0.19160400  0.00000000  0.09922600  1
  H  H34  1  0.15573450  0.32137450  0.10163000  1
  H  H35  1  0.65573450  0.17862550  0.10163000  1
  H  H36  1  0.59056900  0.00000000  0.25000000  1
  H  H37  1  0.45744550  0.37822750  0.25000000  1
  H  H38  1  0.95744550  0.12177250  0.25000000  1
  H  H39  1  0.15573450  0.32137450  0.39837000  1
  H  H40  1  0.65573450  0.17862550  0.39837000  1
  H  H41  1  0.19160400  0.00000000  0.40077400  1
  H  H42  1  0.30839600  0.50000000  0.59922600  1
  H  H43  1  0.34426550  0.82137450  0.60163000  1
  H  H44  1  0.84426550  0.67862550  0.60163000  1
  H  H45  1  0.90943100  0.50000000  0.75000000  1
  H  H46  1  0.04255450  0.87822750  0.75000000  1
  H  H47  1  0.54255450  0.62177250  0.75000000  1
  H  H48  1  0.34426550  0.82137450  0.89837000  1
  H  H49  1  0.84426550  0.67862550  0.89837000  1
  H  H50  1  0.30839600  0.50000000  0.90077400  1
  H  H51  1  0.69160400  0.50000000  0.09922600  1
  H  H52  1  0.65573450  0.82137450  0.10163000  1
  H  H53  1  0.15573450  0.67862550  0.10163000  1
  H  H54  1  0.09056900  0.50000000  0.25000000  1
  H  H55  1  0.95744550  0.87822750  0.25000000  1
  H  H56  1  0.45744550  0.62177250  0.25000000  1
  H  H57  1  0.65573450  0.82137450  0.39837000  1
  H  H58  1  0.15573450  0.67862550  0.39837000  1
  H  H59  1  0.69160400  0.50000000  0.40077400  1
