# generated using pymatgen
data_Rb2CoP4(HO2)8
_symmetry_space_group_name_H-M   'P 1'
_cell_length_a   7.10529875
_cell_length_b   7.44625625
_cell_length_c   7.86239332
_cell_angle_alpha   97.66236459
_cell_angle_beta   109.20751194
_cell_angle_gamma   88.44829392
_symmetry_Int_Tables_number   1
_chemical_formula_structural   Rb2CoP4(HO2)8
_chemical_formula_sum   'Rb2 Co1 P4 H8 O16'
_cell_volume   389.25595032
_cell_formula_units_Z   1
loop_
 _symmetry_equiv_pos_site_id
 _symmetry_equiv_pos_as_xyz
  1  'x, y, z'
loop_
 _atom_site_type_symbol
 _atom_site_label
 _atom_site_symmetry_multiplicity
 _atom_site_fract_x
 _atom_site_fract_y
 _atom_site_fract_z
 _atom_site_occupancy
  Rb  Rb0  1  0.40940450  0.28958850  0.79140250  1
  Rb  Rb1  1  0.59059550  0.71041150  0.20859750  1
  Co  Co2  1  0.00000000  0.50000000  0.00000000  1
  P  P3  1  0.14098150  0.74437600  0.73281050  1
  P  P4  1  0.85901850  0.25562400  0.26718950  1
  P  P5  1  0.73278900  0.79257650  0.74331300  1
  P  P6  1  0.26721100  0.20742350  0.25668700  1
  H  H7  1  0.23144650  0.97400800  0.95549150  1
  H  H8  1  0.76855350  0.02599200  0.04450850  1
  H  H9  1  0.88600950  0.29850650  0.66006150  1
  H  H10  1  0.11399050  0.70149350  0.33993850  1
  H  H11  1  0.41070750  0.73874050  0.57798750  1
  H  H12  1  0.58929250  0.26125950  0.42201250  1
  H  H13  1  0.87854700  0.16820950  0.80513700  1
  H  H14  1  0.12145300  0.83179050  0.19486300  1
  O  O15  1  0.93738850  0.28231500  0.79058150  1
  O  O16  1  0.06261150  0.71768500  0.20941850  1
  O  O17  1  0.23332450  0.93860350  0.82381050  1
  O  O18  1  0.76667550  0.06139650  0.17618950  1
  O  O19  1  0.21102500  0.68582600  0.57176700  1
  O  O20  1  0.78897500  0.31417400  0.42823300  1
  O  O21  1  0.18180950  0.61610350  0.87488550  1
  O  O22  1  0.81819050  0.38389650  0.12511450  1
  O  O23  1  0.90275050  0.76997500  0.64434550  1
  O  O24  1  0.09724950  0.23002500  0.35565450  1
  O  O25  1  0.75550050  0.98355100  0.84713250  1
  O  O26  1  0.24449950  0.01644900  0.15286750  1
  O  O27  1  0.54609600  0.77495800  0.56572500  1
  O  O28  1  0.45390400  0.22504200  0.43427500  1
  O  O29  1  0.74259350  0.63984850  0.85525950  1
  O  O30  1  0.25740650  0.36015150  0.14474050  1
