# generated using pymatgen
data_Ag2GeS3
_symmetry_space_group_name_H-M   'P 1'
_cell_length_a   7.06476200
_cell_length_b   11.98538000
_cell_length_c   6.54533000
_cell_angle_alpha   90.00000000
_cell_angle_beta   90.00000000
_cell_angle_gamma   90.00000000
_symmetry_Int_Tables_number   1
_chemical_formula_structural   Ag2GeS3
_chemical_formula_sum   'Ag8 Ge4 S12'
_cell_volume   554.21833761
_cell_formula_units_Z   4
loop_
 _symmetry_equiv_pos_site_id
 _symmetry_equiv_pos_as_xyz
  1  'x, y, z'
loop_
 _atom_site_type_symbol
 _atom_site_label
 _atom_site_symmetry_multiplicity
 _atom_site_fract_x
 _atom_site_fract_y
 _atom_site_fract_z
 _atom_site_occupancy
  Ag  Ag0  1  0.65294500  0.34297500  0.49011700  1
  Ag  Ag1  1  0.34705500  0.65702500  0.99011700  1
  Ag  Ag2  1  0.65294500  0.65702500  0.49011700  1
  Ag  Ag3  1  0.34705500  0.34297500  0.99011700  1
  Ag  Ag4  1  0.15294500  0.84297500  0.49011700  1
  Ag  Ag5  1  0.84705500  0.15702500  0.99011700  1
  Ag  Ag6  1  0.15294500  0.15702500  0.49011700  1
  Ag  Ag7  1  0.84705500  0.84297500  0.99011700  1
  Ge  Ge8  1  0.33923400  0.00000000  0.95946800  1
  Ge  Ge9  1  0.66076600  0.00000000  0.45946800  1
  Ge  Ge10  1  0.83923400  0.50000000  0.95946800  1
  Ge  Ge11  1  0.16076600  0.50000000  0.45946800  1
  S  S12  1  0.64266500  0.00000000  0.82362800  1
  S  S13  1  0.35733500  0.00000000  0.32362800  1
  S  S14  1  0.80756950  0.15596250  0.37683600  1
  S  S15  1  0.80756950  0.84403750  0.37683600  1
  S  S16  1  0.19243050  0.15596250  0.87683600  1
  S  S17  1  0.19243050  0.84403750  0.87683600  1
  S  S18  1  0.14266500  0.50000000  0.82362800  1
  S  S19  1  0.85733500  0.50000000  0.32362800  1
  S  S20  1  0.30756950  0.65596250  0.37683600  1
  S  S21  1  0.30756950  0.34403750  0.37683600  1
  S  S22  1  0.69243050  0.65596250  0.87683600  1
  S  S23  1  0.69243050  0.34403750  0.87683600  1
