# generated using pymatgen
data_BaDyCuTe3
_symmetry_space_group_name_H-M   'P 1'
_cell_length_a   4.43938400
_cell_length_b   14.99780800
_cell_length_c   11.43505800
_cell_angle_alpha   90.00000000
_cell_angle_beta   90.00000000
_cell_angle_gamma   90.00000000
_symmetry_Int_Tables_number   1
_chemical_formula_structural   BaDyCuTe3
_chemical_formula_sum   'Ba4 Dy4 Cu4 Te12'
_cell_volume   761.35792683
_cell_formula_units_Z   4
loop_
 _symmetry_equiv_pos_site_id
 _symmetry_equiv_pos_as_xyz
  1  'x, y, z'
loop_
 _atom_site_type_symbol
 _atom_site_label
 _atom_site_symmetry_multiplicity
 _atom_site_fract_x
 _atom_site_fract_y
 _atom_site_fract_z
 _atom_site_occupancy
  Ba  Ba0  1  0.00000000  0.25071700  0.75000000  1
  Ba  Ba1  1  0.50000000  0.24928300  0.25000000  1
  Ba  Ba2  1  0.50000000  0.75071700  0.75000000  1
  Ba  Ba3  1  0.00000000  0.74928300  0.25000000  1
  Dy  Dy4  1  0.50000000  0.00000000  0.00000000  1
  Dy  Dy5  1  0.50000000  0.00000000  0.50000000  1
  Dy  Dy6  1  0.00000000  0.50000000  0.00000000  1
  Dy  Dy7  1  0.00000000  0.50000000  0.50000000  1
  Cu  Cu8  1  0.00000000  0.03210100  0.25000000  1
  Cu  Cu9  1  0.50000000  0.46789900  0.75000000  1
  Cu  Cu10  1  0.50000000  0.53210100  0.25000000  1
  Cu  Cu11  1  0.00000000  0.96789900  0.75000000  1
  Te  Te12  1  0.50000000  0.36394800  0.93884800  1
  Te  Te13  1  0.00000000  0.13605200  0.06115200  1
  Te  Te14  1  0.00000000  0.13605200  0.43884800  1
  Te  Te15  1  0.50000000  0.36394800  0.56115200  1
  Te  Te16  1  0.00000000  0.42956600  0.25000000  1
  Te  Te17  1  0.50000000  0.07043400  0.75000000  1
  Te  Te18  1  0.00000000  0.86394800  0.93884800  1
  Te  Te19  1  0.50000000  0.63605200  0.06115200  1
  Te  Te20  1  0.50000000  0.63605200  0.43884800  1
  Te  Te21  1  0.00000000  0.86394800  0.56115200  1
  Te  Te22  1  0.50000000  0.92956600  0.25000000  1
  Te  Te23  1  0.00000000  0.57043400  0.75000000  1
