# generated using pymatgen
data_Na2ZrO3
_symmetry_space_group_name_H-M   'P 1'
_cell_length_a   5.69047600
_cell_length_b   9.86854000
_cell_length_c   11.24118404
_cell_angle_alpha   90.00000000
_cell_angle_beta   99.92236454
_cell_angle_gamma   90.00000000
_symmetry_Int_Tables_number   1
_chemical_formula_structural   Na2ZrO3
_chemical_formula_sum   'Na16 Zr8 O24'
_cell_volume   621.82527491
_cell_formula_units_Z   8
loop_
 _symmetry_equiv_pos_site_id
 _symmetry_equiv_pos_as_xyz
  1  'x, y, z'
loop_
 _atom_site_type_symbol
 _atom_site_label
 _atom_site_symmetry_multiplicity
 _atom_site_fract_x
 _atom_site_fract_y
 _atom_site_fract_z
 _atom_site_occupancy
  Na  Na0  1  0.00000000  0.91556200  0.25000000  1
  Na  Na1  1  0.50000000  0.58443800  0.75000000  1
  Na  Na2  1  0.75000000  0.75000000  0.00000000  1
  Na  Na3  1  0.25000000  0.75000000  0.50000000  1
  Na  Na4  1  0.73946900  0.57956500  0.49986900  1
  Na  Na5  1  0.26053100  0.57956500  0.00013100  1
  Na  Na6  1  0.76053100  0.92043500  0.50013100  1
  Na  Na7  1  0.23946900  0.92043500  0.99986900  1
  Na  Na8  1  0.50000000  0.41556200  0.25000000  1
  Na  Na9  1  0.00000000  0.08443800  0.75000000  1
  Na  Na10  1  0.25000000  0.25000000  0.00000000  1
  Na  Na11  1  0.75000000  0.25000000  0.50000000  1
  Na  Na12  1  0.23946900  0.07956500  0.49986900  1
  Na  Na13  1  0.76053100  0.07956500  0.00013100  1
  Na  Na14  1  0.26053100  0.42043500  0.50013100  1
  Na  Na15  1  0.73946900  0.42043500  0.99986900  1
  Zr  Zr16  1  0.00000000  0.58230500  0.25000000  1
  Zr  Zr17  1  0.50000000  0.91769500  0.75000000  1
  Zr  Zr18  1  0.00000000  0.75015000  0.75000000  1
  Zr  Zr19  1  0.50000000  0.74985000  0.25000000  1
  Zr  Zr20  1  0.50000000  0.08230500  0.25000000  1
  Zr  Zr21  1  0.00000000  0.41769500  0.75000000  1
  Zr  Zr22  1  0.50000000  0.25015000  0.75000000  1
  Zr  Zr23  1  0.00000000  0.24985000  0.25000000  1
  O  O24  1  0.90605300  0.58442500  0.85562100  1
  O  O25  1  0.09394700  0.58442500  0.64437900  1
  O  O26  1  0.59394700  0.91557500  0.14437900  1
  O  O27  1  0.40605300  0.91557500  0.35562100  1
  O  O28  1  0.84997650  0.72981250  0.35537300  1
  O  O29  1  0.15002350  0.72981250  0.14462700  1
  O  O30  1  0.65002350  0.77018750  0.64462700  1
  O  O31  1  0.34997650  0.77018750  0.85537300  1
  O  O32  1  0.64858200  0.60052500  0.14260600  1
  O  O33  1  0.35141800  0.60052500  0.35739400  1
  O  O34  1  0.85141800  0.89947500  0.85739400  1
  O  O35  1  0.14858200  0.89947500  0.64260600  1
  O  O36  1  0.40605300  0.08442500  0.85562100  1
  O  O37  1  0.59394700  0.08442500  0.64437900  1
  O  O38  1  0.09394700  0.41557500  0.14437900  1
  O  O39  1  0.90605300  0.41557500  0.35562100  1
  O  O40  1  0.34997650  0.22981250  0.35537300  1
  O  O41  1  0.65002350  0.22981250  0.14462700  1
  O  O42  1  0.15002350  0.27018750  0.64462700  1
  O  O43  1  0.84997650  0.27018750  0.85537300  1
  O  O44  1  0.14858200  0.10052500  0.14260600  1
  O  O45  1  0.85141800  0.10052500  0.35739400  1
  O  O46  1  0.35141800  0.39947500  0.85739400  1
  O  O47  1  0.64858200  0.39947500  0.64260600  1
