# generated using pymatgen
data_FeSiW
_symmetry_space_group_name_H-M   'P 1'
_cell_length_a   5.54703600
_cell_length_b   5.54703600
_cell_length_c   5.54703600
_cell_angle_alpha   90.00000000
_cell_angle_beta   90.00000000
_cell_angle_gamma   90.00000000
_symmetry_Int_Tables_number   1
_chemical_formula_structural   FeSiW
_chemical_formula_sum   'Fe4 Si4 W4'
_cell_volume   170.68012542
_cell_formula_units_Z   4
loop_
 _symmetry_equiv_pos_site_id
 _symmetry_equiv_pos_as_xyz
  1  'x, y, z'
loop_
 _atom_site_type_symbol
 _atom_site_label
 _atom_site_symmetry_multiplicity
 _atom_site_fract_x
 _atom_site_fract_y
 _atom_site_fract_z
 _atom_site_occupancy
  Fe  Fe0  1  0.25000000  0.25000000  0.25000000  1
  Fe  Fe1  1  0.25000000  0.75000000  0.75000000  1
  Fe  Fe2  1  0.75000000  0.25000000  0.75000000  1
  Fe  Fe3  1  0.75000000  0.75000000  0.25000000  1
  Si  Si4  1  0.00000000  0.00000000  0.00000000  1
  Si  Si5  1  0.00000000  0.50000000  0.50000000  1
  Si  Si6  1  0.50000000  0.00000000  0.50000000  1
  Si  Si7  1  0.50000000  0.50000000  0.00000000  1
  W  W8  1  0.50000000  0.00000000  0.00000000  1
  W  W9  1  0.50000000  0.50000000  0.50000000  1
  W  W10  1  0.00000000  0.00000000  0.50000000  1
  W  W11  1  0.00000000  0.50000000  0.00000000  1
