# generated using pymatgen
data_Cs2TlInF6
_symmetry_space_group_name_H-M   'P 1'
_cell_length_a   9.64226600
_cell_length_b   9.64226600
_cell_length_c   9.64226600
_cell_angle_alpha   90.00000000
_cell_angle_beta   90.00000000
_cell_angle_gamma   90.00000000
_symmetry_Int_Tables_number   1
_chemical_formula_structural   Cs2TlInF6
_chemical_formula_sum   'Cs8 Tl4 In4 F24'
_cell_volume   896.47322793
_cell_formula_units_Z   4
loop_
 _symmetry_equiv_pos_site_id
 _symmetry_equiv_pos_as_xyz
  1  'x, y, z'
loop_
 _atom_site_type_symbol
 _atom_site_label
 _atom_site_symmetry_multiplicity
 _atom_site_fract_x
 _atom_site_fract_y
 _atom_site_fract_z
 _atom_site_occupancy
  Cs  Cs0  1  0.25000000  0.25000000  0.75000000  1
  Cs  Cs1  1  0.25000000  0.75000000  0.75000000  1
  Cs  Cs2  1  0.25000000  0.75000000  0.25000000  1
  Cs  Cs3  1  0.25000000  0.25000000  0.25000000  1
  Cs  Cs4  1  0.75000000  0.25000000  0.25000000  1
  Cs  Cs5  1  0.75000000  0.75000000  0.25000000  1
  Cs  Cs6  1  0.75000000  0.75000000  0.75000000  1
  Cs  Cs7  1  0.75000000  0.25000000  0.75000000  1
  Tl  Tl8  1  0.00000000  0.00000000  0.00000000  1
  Tl  Tl9  1  0.00000000  0.50000000  0.50000000  1
  Tl  Tl10  1  0.50000000  0.00000000  0.50000000  1
  Tl  Tl11  1  0.50000000  0.50000000  0.00000000  1
  In  In12  1  0.50000000  0.00000000  0.00000000  1
  In  In13  1  0.50000000  0.50000000  0.50000000  1
  In  In14  1  0.00000000  0.00000000  0.50000000  1
  In  In15  1  0.00000000  0.50000000  0.00000000  1
  F  F16  1  0.28034300  0.00000000  0.00000000  1
  F  F17  1  0.50000000  0.00000000  0.78034300  1
  F  F18  1  0.71965700  0.00000000  0.00000000  1
  F  F19  1  0.50000000  0.78034300  0.00000000  1
  F  F20  1  0.50000000  0.21965700  0.00000000  1
  F  F21  1  0.00000000  0.00000000  0.71965700  1
  F  F22  1  0.28034300  0.50000000  0.50000000  1
  F  F23  1  0.50000000  0.50000000  0.28034300  1
  F  F24  1  0.71965700  0.50000000  0.50000000  1
  F  F25  1  0.50000000  0.28034300  0.50000000  1
  F  F26  1  0.50000000  0.71965700  0.50000000  1
  F  F27  1  0.00000000  0.50000000  0.21965700  1
  F  F28  1  0.78034300  0.00000000  0.50000000  1
  F  F29  1  0.00000000  0.00000000  0.28034300  1
  F  F30  1  0.21965700  0.00000000  0.50000000  1
  F  F31  1  0.00000000  0.78034300  0.50000000  1
  F  F32  1  0.00000000  0.21965700  0.50000000  1
  F  F33  1  0.50000000  0.00000000  0.21965700  1
  F  F34  1  0.78034300  0.50000000  0.00000000  1
  F  F35  1  0.00000000  0.50000000  0.78034300  1
  F  F36  1  0.21965700  0.50000000  0.00000000  1
  F  F37  1  0.00000000  0.28034300  0.00000000  1
  F  F38  1  0.00000000  0.71965700  0.00000000  1
  F  F39  1  0.50000000  0.50000000  0.71965700  1
