# generated using pymatgen
data_CaReN3
_symmetry_space_group_name_H-M   'P 1'
_cell_length_a   11.07837000
_cell_length_b   9.96467000
_cell_length_c   6.28517872
_cell_angle_alpha   90.00000000
_cell_angle_beta   111.20150527
_cell_angle_gamma   90.00000000
_symmetry_Int_Tables_number   1
_chemical_formula_structural   CaReN3
_chemical_formula_sum   'Ca8 Re8 N24'
_cell_volume   646.87261159
_cell_formula_units_Z   8
loop_
 _symmetry_equiv_pos_site_id
 _symmetry_equiv_pos_as_xyz
  1  'x, y, z'
loop_
 _atom_site_type_symbol
 _atom_site_label
 _atom_site_symmetry_multiplicity
 _atom_site_fract_x
 _atom_site_fract_y
 _atom_site_fract_z
 _atom_site_occupancy
  Ca  Ca0  1  0.00000000  0.08803000  0.25000000  1
  Ca  Ca1  1  0.00000000  0.70536000  0.25000000  1
  Ca  Ca2  1  0.00000000  0.91197000  0.75000000  1
  Ca  Ca3  1  0.00000000  0.29464000  0.75000000  1
  Ca  Ca4  1  0.50000000  0.58803000  0.25000000  1
  Ca  Ca5  1  0.50000000  0.20536000  0.25000000  1
  Ca  Ca6  1  0.50000000  0.41197000  0.75000000  1
  Ca  Ca7  1  0.50000000  0.79464000  0.75000000  1
  Re  Re8  1  0.20941000  0.58734000  0.72671000  1
  Re  Re9  1  0.79059000  0.58734000  0.77329000  1
  Re  Re10  1  0.79059000  0.41266000  0.27329000  1
  Re  Re11  1  0.20941000  0.41266000  0.22671000  1
  Re  Re12  1  0.70941000  0.08734000  0.72671000  1
  Re  Re13  1  0.29059000  0.08734000  0.77329000  1
  Re  Re14  1  0.29059000  0.91266000  0.27329000  1
  Re  Re15  1  0.70941000  0.91266000  0.22671000  1
  N  N16  1  0.84881000  0.50632000  0.06305000  1
  N  N17  1  0.61867000  0.60770000  0.66243000  1
  N  N18  1  0.38133000  0.60770000  0.83757000  1
  N  N19  1  0.61867000  0.39230000  0.16243000  1
  N  N20  1  0.15119000  0.49368000  0.93695000  1
  N  N21  1  0.13333000  0.25533000  0.17065000  1
  N  N22  1  0.86667000  0.74467000  0.82935000  1
  N  N23  1  0.38133000  0.39230000  0.33757000  1
  N  N24  1  0.13333000  0.74467000  0.67065000  1
  N  N25  1  0.15119000  0.50632000  0.43695000  1
  N  N26  1  0.86667000  0.25533000  0.32935000  1
  N  N27  1  0.84881000  0.49368000  0.56305000  1
  N  N28  1  0.34881000  0.00632000  0.06305000  1
  N  N29  1  0.11867000  0.10770000  0.66243000  1
  N  N30  1  0.88133000  0.10770000  0.83757000  1
  N  N31  1  0.11867000  0.89230000  0.16243000  1
  N  N32  1  0.65119000  0.99368000  0.93695000  1
  N  N33  1  0.63333000  0.75533000  0.17065000  1
  N  N34  1  0.36667000  0.24467000  0.82935000  1
  N  N35  1  0.88133000  0.89230000  0.33757000  1
  N  N36  1  0.63333000  0.24467000  0.67065000  1
  N  N37  1  0.65119000  0.00632000  0.43695000  1
  N  N38  1  0.36667000  0.75533000  0.32935000  1
  N  N39  1  0.34881000  0.99368000  0.56305000  1
