# generated using pymatgen
data_K3La(AsO4)2
_symmetry_space_group_name_H-M   'P 1'
_cell_length_a   7.68881800
_cell_length_b   5.92727100
_cell_length_c   10.08238501
_cell_angle_alpha   90.00000000
_cell_angle_beta   91.65385046
_cell_angle_gamma   90.00000000
_symmetry_Int_Tables_number   1
_chemical_formula_structural   K3La(AsO4)2
_chemical_formula_sum   'K6 La2 As4 O16'
_cell_volume   459.30025991
_cell_formula_units_Z   2
loop_
 _symmetry_equiv_pos_site_id
 _symmetry_equiv_pos_as_xyz
  1  'x, y, z'
loop_
 _atom_site_type_symbol
 _atom_site_label
 _atom_site_symmetry_multiplicity
 _atom_site_fract_x
 _atom_site_fract_y
 _atom_site_fract_z
 _atom_site_occupancy
  K  K0  1  0.01066200  0.99083400  0.19121800  1
  K  K1  1  0.98933800  0.49083400  0.80878200  1
  K  K2  1  0.85956900  0.98877200  0.59580500  1
  K  K3  1  0.14043100  0.48877200  0.40419500  1
  K  K4  1  0.31533500  0.00250500  0.91749500  1
  K  K5  1  0.68466500  0.50250500  0.08250500  1
  La  La6  1  0.49026300  0.50797800  0.70750100  1
  La  La7  1  0.50973700  0.00797800  0.29249900  1
  As  As8  1  0.25307500  0.50195200  0.08436300  1
  As  As9  1  0.74692500  0.00195200  0.91563700  1
  As  As10  1  0.29818700  0.98149100  0.57334000  1
  As  As11  1  0.70181300  0.48149100  0.42666000  1
  O  O12  1  0.96681400  0.01339600  0.90212800  1
  O  O13  1  0.03318600  0.51339600  0.09787200  1
  O  O14  1  0.48359300  0.42808000  0.44428900  1
  O  O15  1  0.51640700  0.92808000  0.55571100  1
  O  O16  1  0.78800900  0.50162900  0.58600200  1
  O  O17  1  0.21199100  0.00162900  0.41399800  1
  O  O18  1  0.74722100  0.72343800  0.33824100  1
  O  O19  1  0.25277900  0.22343800  0.66175900  1
  O  O20  1  0.78263900  0.24847400  0.34570800  1
  O  O21  1  0.21736100  0.74847400  0.65429200  1
  O  O22  1  0.66716400  0.75508500  0.84443300  1
  O  O23  1  0.33283600  0.25508500  0.15556700  1
  O  O24  1  0.65203900  0.22818300  0.83149500  1
  O  O25  1  0.34796100  0.72818300  0.16850500  1
  O  O26  1  0.68066900  0.00957300  0.07805800  1
  O  O27  1  0.31933100  0.50957300  0.92194200  1
