# generated using pymatgen
data_K3NpO2F5
_symmetry_space_group_name_H-M   'P 1'
_cell_length_a   9.28331400
_cell_length_b   9.28331400
_cell_length_c   18.38236000
_cell_angle_alpha   90.00000000
_cell_angle_beta   90.00000000
_cell_angle_gamma   90.00000000
_symmetry_Int_Tables_number   1
_chemical_formula_structural   K3NpO2F5
_chemical_formula_sum   'K24 Np8 O16 F40'
_cell_volume   1584.19029257
_cell_formula_units_Z   8
loop_
 _symmetry_equiv_pos_site_id
 _symmetry_equiv_pos_as_xyz
  1  'x, y, z'
loop_
 _atom_site_type_symbol
 _atom_site_label
 _atom_site_symmetry_multiplicity
 _atom_site_fract_x
 _atom_site_fract_y
 _atom_site_fract_z
 _atom_site_occupancy
  K  K0  1  0.76516900  0.28962300  0.38672500  1
  K  K1  1  0.78962300  0.23483100  0.13672500  1
  K  K2  1  0.21037700  0.76516900  0.13672500  1
  K  K3  1  0.23483100  0.71037700  0.38672500  1
  K  K4  1  0.73483100  0.71037700  0.36327500  1
  K  K5  1  0.21037700  0.26516900  0.11327500  1
  K  K6  1  0.78962300  0.73483100  0.11327500  1
  K  K7  1  0.26516900  0.28962300  0.36327500  1
  K  K8  1  0.50000000  0.50000000  0.00000000  1
  K  K9  1  0.50000000  0.00000000  0.25000000  1
  K  K10  1  0.00000000  0.00000000  0.00000000  1
  K  K11  1  0.00000000  0.50000000  0.25000000  1
  K  K12  1  0.26516900  0.78962300  0.88672500  1
  K  K13  1  0.28962300  0.73483100  0.63672500  1
  K  K14  1  0.71037700  0.26516900  0.63672500  1
  K  K15  1  0.73483100  0.21037700  0.88672500  1
  K  K16  1  0.23483100  0.21037700  0.86327500  1
  K  K17  1  0.71037700  0.76516900  0.61327500  1
  K  K18  1  0.28962300  0.23483100  0.61327500  1
  K  K19  1  0.76516900  0.78962300  0.86327500  1
  K  K20  1  0.00000000  0.00000000  0.50000000  1
  K  K21  1  0.00000000  0.50000000  0.75000000  1
  K  K22  1  0.50000000  0.50000000  0.50000000  1
  K  K23  1  0.50000000  0.00000000  0.75000000  1
  Np  Np24  1  0.50000000  0.00000000  0.02125500  1
  Np  Np25  1  0.00000000  0.00000000  0.27125500  1
  Np  Np26  1  0.50000000  0.50000000  0.22874500  1
  Np  Np27  1  0.50000000  0.00000000  0.47874500  1
  Np  Np28  1  0.00000000  0.50000000  0.52125500  1
  Np  Np29  1  0.50000000  0.50000000  0.77125500  1
  Np  Np30  1  0.00000000  0.00000000  0.72874500  1
  Np  Np31  1  0.00000000  0.50000000  0.97874500  1
  O  O32  1  0.19284650  0.95912950  0.27168950  1
  O  O33  1  0.45912950  0.80715350  0.02168950  1
  O  O34  1  0.54087050  0.19284650  0.02168950  1
  O  O35  1  0.80715350  0.04087050  0.27168950  1
  O  O36  1  0.30715350  0.04087050  0.47831050  1
  O  O37  1  0.54087050  0.69284650  0.22831050  1
  O  O38  1  0.45912950  0.30715350  0.22831050  1
  O  O39  1  0.69284650  0.95912950  0.47831050  1
  O  O40  1  0.69284650  0.45912950  0.77168950  1
  O  O41  1  0.95912950  0.30715350  0.52168950  1
  O  O42  1  0.04087050  0.69284650  0.52168950  1
  O  O43  1  0.30715350  0.54087050  0.77168950  1
  O  O44  1  0.80715350  0.54087050  0.97831050  1
  O  O45  1  0.04087050  0.19284650  0.72831050  1
  O  O46  1  0.95912950  0.80715350  0.72831050  1
  O  O47  1  0.19284650  0.45912950  0.97831050  1
  F  F48  1  0.04733150  0.72848750  0.02016150  1
  F  F49  1  0.72848750  0.45266850  0.27016150  1
  F  F50  1  0.27151250  0.54733150  0.27016150  1
  F  F51  1  0.95266850  0.27151250  0.02016150  1
  F  F52  1  0.95266850  0.77151250  0.22983850  1
  F  F53  1  0.77151250  0.54733150  0.47983850  1
  F  F54  1  0.22848750  0.45266850  0.47983850  1
  F  F55  1  0.04733150  0.22848750  0.22983850  1
  F  F56  1  0.00000000  0.50000000  0.10464200  1
  F  F57  1  0.50000000  0.50000000  0.35464200  1
  F  F58  1  0.00000000  0.00000000  0.14535800  1
  F  F59  1  0.00000000  0.50000000  0.39535800  1
  F  F60  1  0.01952750  0.14336750  0.36921150  1
  F  F61  1  0.64336750  0.98047250  0.11921150  1
  F  F62  1  0.35663250  0.01952750  0.11921150  1
  F  F63  1  0.98047250  0.85663250  0.36921150  1
  F  F64  1  0.48047250  0.85663250  0.38078850  1
  F  F65  1  0.35663250  0.51952750  0.13078850  1
  F  F66  1  0.64336750  0.48047250  0.13078850  1
  F  F67  1  0.51952750  0.14336750  0.38078850  1
  F  F68  1  0.54733150  0.22848750  0.52016150  1
  F  F69  1  0.22848750  0.95266850  0.77016150  1
  F  F70  1  0.77151250  0.04733150  0.77016150  1
  F  F71  1  0.45266850  0.77151250  0.52016150  1
  F  F72  1  0.45266850  0.27151250  0.72983850  1
  F  F73  1  0.27151250  0.04733150  0.97983850  1
  F  F74  1  0.72848750  0.95266850  0.97983850  1
  F  F75  1  0.54733150  0.72848750  0.72983850  1
  F  F76  1  0.50000000  0.00000000  0.60464200  1
  F  F77  1  0.00000000  0.00000000  0.85464200  1
  F  F78  1  0.50000000  0.50000000  0.64535800  1
  F  F79  1  0.50000000  0.00000000  0.89535800  1
  F  F80  1  0.51952750  0.64336750  0.86921150  1
  F  F81  1  0.14336750  0.48047250  0.61921150  1
  F  F82  1  0.85663250  0.51952750  0.61921150  1
  F  F83  1  0.48047250  0.35663250  0.86921150  1
  F  F84  1  0.98047250  0.35663250  0.88078850  1
  F  F85  1  0.85663250  0.01952750  0.63078850  1
  F  F86  1  0.14336750  0.98047250  0.63078850  1
  F  F87  1  0.01952750  0.64336750  0.88078850  1
