# generated using pymatgen
data_RbAgO2
_symmetry_space_group_name_H-M   'P 1'
_cell_length_a   7.06662000
_cell_length_b   9.37690600
_cell_length_c   5.94013575
_cell_angle_alpha   90.00000000
_cell_angle_beta   108.54488368
_cell_angle_gamma   90.00000000
_symmetry_Int_Tables_number   1
_chemical_formula_structural   RbAgO2
_chemical_formula_sum   'Rb4 Ag4 O8'
_cell_volume   373.17305053
_cell_formula_units_Z   4
loop_
 _symmetry_equiv_pos_site_id
 _symmetry_equiv_pos_as_xyz
  1  'x, y, z'
loop_
 _atom_site_type_symbol
 _atom_site_label
 _atom_site_symmetry_multiplicity
 _atom_site_fract_x
 _atom_site_fract_y
 _atom_site_fract_z
 _atom_site_occupancy
  Rb  Rb0  1  0.50000000  0.85374300  0.25000000  1
  Rb  Rb1  1  0.50000000  0.14625700  0.75000000  1
  Rb  Rb2  1  0.00000000  0.35374300  0.25000000  1
  Rb  Rb3  1  0.00000000  0.64625700  0.75000000  1
  Ag  Ag4  1  0.00000000  0.00000000  0.00000000  1
  Ag  Ag5  1  0.00000000  0.00000000  0.50000000  1
  Ag  Ag6  1  0.50000000  0.50000000  0.00000000  1
  Ag  Ag7  1  0.50000000  0.50000000  0.50000000  1
  O  O8  1  0.19964600  0.04584800  0.32561400  1
  O  O9  1  0.19964600  0.95415200  0.82561400  1
  O  O10  1  0.80035400  0.95415200  0.67438600  1
  O  O11  1  0.80035400  0.04584800  0.17438600  1
  O  O12  1  0.69964600  0.54584800  0.32561400  1
  O  O13  1  0.69964600  0.45415200  0.82561400  1
  O  O14  1  0.30035400  0.45415200  0.67438600  1
  O  O15  1  0.30035400  0.54584800  0.17438600  1
