# generated using pymatgen
data_LiAsO3
_symmetry_space_group_name_H-M   'P 1'
_cell_length_a   4.89837222
_cell_length_b   4.89837222
_cell_length_c   14.47896359
_cell_angle_alpha   90.00000000
_cell_angle_beta   90.00000000
_cell_angle_gamma   120.00000000
_symmetry_Int_Tables_number   1
_chemical_formula_structural   LiAsO3
_chemical_formula_sum   'Li6 As6 O18'
_cell_volume   300.86500370
_cell_formula_units_Z   6
loop_
 _symmetry_equiv_pos_site_id
 _symmetry_equiv_pos_as_xyz
  1  'x, y, z'
loop_
 _atom_site_type_symbol
 _atom_site_label
 _atom_site_symmetry_multiplicity
 _atom_site_fract_x
 _atom_site_fract_y
 _atom_site_fract_z
 _atom_site_occupancy
  Li  Li0  1  0.66666667  0.33333333  0.20002533  1
  Li  Li1  1  0.00000000  0.00000000  0.13330800  1
  Li  Li2  1  0.33333333  0.66666667  0.53335867  1
  Li  Li3  1  0.66666667  0.33333333  0.46664133  1
  Li  Li4  1  0.00000000  0.00000000  0.86669200  1
  Li  Li5  1  0.33333333  0.66666667  0.79997467  1
  As  As6  1  0.33333333  0.66666667  0.32814667  1
  As  As7  1  0.33333333  0.66666667  0.00518667  1
  As  As8  1  0.00000000  0.00000000  0.66148000  1
  As  As9  1  0.00000000  0.00000000  0.33852000  1
  As  As10  1  0.66666667  0.33333333  0.99481333  1
  As  As11  1  0.66666667  0.33333333  0.67185333  1
  O  O12  1  0.63061100  0.62220000  0.07274400  1
  O  O13  1  0.99158900  0.36938900  0.07274400  1
  O  O14  1  0.28886667  0.32492233  0.26058933  1
  O  O15  1  0.03605567  0.71113333  0.26058933  1
  O  O16  1  0.67507767  0.96394433  0.26058933  1
  O  O17  1  0.37780000  0.00841100  0.07274400  1
  O  O18  1  0.29727767  0.95553333  0.40607733  1
  O  O19  1  0.65825567  0.70272233  0.40607733  1
  O  O20  1  0.95553333  0.65825567  0.59392267  1
  O  O21  1  0.70272233  0.04446667  0.59392267  1
  O  O22  1  0.34174433  0.29727767  0.59392267  1
  O  O23  1  0.04446667  0.34174433  0.40607733  1
  O  O24  1  0.96394433  0.28886667  0.73941067  1
  O  O25  1  0.32492233  0.03605567  0.73941067  1
  O  O26  1  0.62220000  0.99158900  0.92725600  1
  O  O27  1  0.36938900  0.37780000  0.92725600  1
  O  O28  1  0.00841100  0.63061100  0.92725600  1
  O  O29  1  0.71113333  0.67507767  0.73941067  1
