# generated using pymatgen
data_RbSbF6
_symmetry_space_group_name_H-M   'P 1'
_cell_length_a   7.86813834
_cell_length_b   7.86813834
_cell_length_c   8.00317544
_cell_angle_alpha   90.00000000
_cell_angle_beta   90.00000000
_cell_angle_gamma   120.00000000
_symmetry_Int_Tables_number   1
_chemical_formula_structural   RbSbF6
_chemical_formula_sum   'Rb3 Sb3 F18'
_cell_volume   429.07868740
_cell_formula_units_Z   3
loop_
 _symmetry_equiv_pos_site_id
 _symmetry_equiv_pos_as_xyz
  1  'x, y, z'
loop_
 _atom_site_type_symbol
 _atom_site_label
 _atom_site_symmetry_multiplicity
 _atom_site_fract_x
 _atom_site_fract_y
 _atom_site_fract_z
 _atom_site_occupancy
  Rb  Rb0  1  0.00000000  0.00000000  0.50000000  1
  Rb  Rb1  1  0.66666667  0.33333333  0.83333333  1
  Rb  Rb2  1  0.33333333  0.66666667  0.16666667  1
  Sb  Sb3  1  0.00000000  0.00000000  0.00000000  1
  Sb  Sb4  1  0.66666667  0.33333333  0.33333333  1
  Sb  Sb5  1  0.33333333  0.66666667  0.66666667  1
  F  F6  1  0.73614300  0.18026300  0.47505300  1
  F  F7  1  0.81973700  0.55588000  0.47505300  1
  F  F8  1  0.55588000  0.73614300  0.52494700  1
  F  F9  1  0.18026300  0.44412000  0.52494700  1
  F  F10  1  0.26385700  0.81973700  0.52494700  1
  F  F11  1  0.44412000  0.26385700  0.47505300  1
  F  F12  1  0.40280967  0.51359633  0.80838633  1
  F  F13  1  0.48640367  0.88921333  0.80838633  1
  F  F14  1  0.22254667  0.06947633  0.85828033  1
  F  F15  1  0.84692967  0.77745333  0.85828033  1
  F  F16  1  0.93052367  0.15307033  0.85828033  1
  F  F17  1  0.11078667  0.59719033  0.80838633  1
  F  F18  1  0.06947633  0.84692967  0.14171967  1
  F  F19  1  0.15307033  0.22254667  0.14171967  1
  F  F20  1  0.88921333  0.40280967  0.19161367  1
  F  F21  1  0.51359633  0.11078667  0.19161367  1
  F  F22  1  0.59719033  0.48640367  0.19161367  1
  F  F23  1  0.77745333  0.93052367  0.14171967  1
