# generated using pymatgen
data_K3AlO3
_symmetry_space_group_name_H-M   'P 1'
_cell_length_a   7.03447800
_cell_length_b   11.20293600
_cell_length_c   6.56091144
_cell_angle_alpha   90.00000000
_cell_angle_beta   102.54883375
_cell_angle_gamma   90.00000000
_symmetry_Int_Tables_number   1
_chemical_formula_structural   K3AlO3
_chemical_formula_sum   'K12 Al4 O12'
_cell_volume   504.69289734
_cell_formula_units_Z   4
loop_
 _symmetry_equiv_pos_site_id
 _symmetry_equiv_pos_as_xyz
  1  'x, y, z'
loop_
 _atom_site_type_symbol
 _atom_site_label
 _atom_site_symmetry_multiplicity
 _atom_site_fract_x
 _atom_site_fract_y
 _atom_site_fract_z
 _atom_site_occupancy
  K  K0  1  0.62828000  0.00000000  0.35135900  1
  K  K1  1  0.37172000  0.00000000  0.64864100  1
  K  K2  1  0.50000000  0.30138100  0.50000000  1
  K  K3  1  0.50000000  0.69861900  0.50000000  1
  K  K4  1  0.50000000  0.23560000  0.00000000  1
  K  K5  1  0.50000000  0.76440000  0.00000000  1
  K  K6  1  0.12828000  0.50000000  0.35135900  1
  K  K7  1  0.87172000  0.50000000  0.64864100  1
  K  K8  1  0.00000000  0.80138100  0.50000000  1
  K  K9  1  0.00000000  0.19861900  0.50000000  1
  K  K10  1  0.00000000  0.73560000  0.00000000  1
  K  K11  1  0.00000000  0.26440000  0.00000000  1
  Al  Al12  1  0.16128100  0.00000000  0.14617300  1
  Al  Al13  1  0.83871900  0.00000000  0.85382700  1
  Al  Al14  1  0.66128100  0.50000000  0.14617300  1
  Al  Al15  1  0.33871900  0.50000000  0.85382700  1
  O  O16  1  0.28149800  0.86969800  0.26212700  1
  O  O17  1  0.71850200  0.86969800  0.73787300  1
  O  O18  1  0.71850200  0.13030200  0.73787300  1
  O  O19  1  0.28149800  0.13030200  0.26212700  1
  O  O20  1  0.10171800  0.00000000  0.85722200  1
  O  O21  1  0.89828200  0.00000000  0.14277800  1
  O  O22  1  0.78149800  0.36969800  0.26212700  1
  O  O23  1  0.21850200  0.36969800  0.73787300  1
  O  O24  1  0.21850200  0.63030200  0.73787300  1
  O  O25  1  0.78149800  0.63030200  0.26212700  1
  O  O26  1  0.60171800  0.50000000  0.85722200  1
  O  O27  1  0.39828200  0.50000000  0.14277800  1
