# generated using pymatgen
data_AlTlSe2
_symmetry_space_group_name_H-M   'P 1'
_cell_length_a   8.26286400
_cell_length_b   8.26286400
_cell_length_c   6.43510400
_cell_angle_alpha   90.00000000
_cell_angle_beta   90.00000000
_cell_angle_gamma   90.00000000
_symmetry_Int_Tables_number   1
_chemical_formula_structural   AlTlSe2
_chemical_formula_sum   'Al4 Tl4 Se8'
_cell_volume   439.35622033
_cell_formula_units_Z   4
loop_
 _symmetry_equiv_pos_site_id
 _symmetry_equiv_pos_as_xyz
  1  'x, y, z'
loop_
 _atom_site_type_symbol
 _atom_site_label
 _atom_site_symmetry_multiplicity
 _atom_site_fract_x
 _atom_site_fract_y
 _atom_site_fract_z
 _atom_site_occupancy
  Al  Al0  1  0.50000000  0.00000000  0.75000000  1
  Al  Al1  1  0.50000000  0.00000000  0.25000000  1
  Al  Al2  1  0.00000000  0.50000000  0.25000000  1
  Al  Al3  1  0.00000000  0.50000000  0.75000000  1
  Tl  Tl4  1  0.00000000  0.00000000  0.25000000  1
  Tl  Tl5  1  0.00000000  0.00000000  0.75000000  1
  Tl  Tl6  1  0.50000000  0.50000000  0.75000000  1
  Tl  Tl7  1  0.50000000  0.50000000  0.25000000  1
  Se  Se8  1  0.34312600  0.15687400  0.50000000  1
  Se  Se9  1  0.34312600  0.84312600  0.00000000  1
  Se  Se10  1  0.65687400  0.84312600  0.50000000  1
  Se  Se11  1  0.65687400  0.15687400  0.00000000  1
  Se  Se12  1  0.84312600  0.65687400  0.00000000  1
  Se  Se13  1  0.84312600  0.34312600  0.50000000  1
  Se  Se14  1  0.15687400  0.34312600  0.00000000  1
  Se  Se15  1  0.15687400  0.65687400  0.50000000  1
