# generated using pymatgen
data_Th2Ta6O19
_symmetry_space_group_name_H-M   'P 1'
_cell_length_a   6.43873011
_cell_length_b   6.43873011
_cell_length_c   20.19761700
_cell_angle_alpha   90.00000000
_cell_angle_beta   90.00000000
_cell_angle_gamma   120.00000000
_symmetry_Int_Tables_number   1
_chemical_formula_structural   Th2Ta6O19
_chemical_formula_sum   'Th4 Ta12 O38'
_cell_volume   725.15560267
_cell_formula_units_Z   2
loop_
 _symmetry_equiv_pos_site_id
 _symmetry_equiv_pos_as_xyz
  1  'x, y, z'
loop_
 _atom_site_type_symbol
 _atom_site_label
 _atom_site_symmetry_multiplicity
 _atom_site_fract_x
 _atom_site_fract_y
 _atom_site_fract_z
 _atom_site_occupancy
  Th  Th0  1  0.66666667  0.33333333  0.00000000  1
  Th  Th1  1  0.33333333  0.66666667  0.50000000  1
  Th  Th2  1  0.33333333  0.66666667  0.00000000  1
  Th  Th3  1  0.66666667  0.33333333  0.50000000  1
  Ta  Ta4  1  0.65294900  0.00000000  0.34367700  1
  Ta  Ta5  1  0.00000000  0.65294900  0.34367700  1
  Ta  Ta6  1  0.34705100  0.34705100  0.34367700  1
  Ta  Ta7  1  0.65294900  0.65294900  0.84367700  1
  Ta  Ta8  1  0.00000000  0.65294900  0.15632300  1
  Ta  Ta9  1  0.34705100  0.00000000  0.84367700  1
  Ta  Ta10  1  0.00000000  0.34705100  0.84367700  1
  Ta  Ta11  1  0.34705100  0.00000000  0.65632300  1
  Ta  Ta12  1  0.65294900  0.65294900  0.65632300  1
  Ta  Ta13  1  0.34705100  0.34705100  0.15632300  1
  Ta  Ta14  1  0.65294900  0.00000000  0.15632300  1
  Ta  Ta15  1  0.00000000  0.34705100  0.65632300  1
  O  O16  1  0.33333333  0.66666667  0.64595100  1
  O  O17  1  0.66666667  0.33333333  0.14595100  1
  O  O18  1  0.66666667  0.33333333  0.85404900  1
  O  O19  1  0.33333333  0.66666667  0.35404900  1
  O  O20  1  0.66666667  0.33333333  0.35404900  1
  O  O21  1  0.33333333  0.66666667  0.85404900  1
  O  O22  1  0.33333333  0.66666667  0.14595100  1
  O  O23  1  0.66666667  0.33333333  0.64595100  1
  O  O24  1  0.61921500  0.00000000  0.44282300  1
  O  O25  1  0.00000000  0.61921500  0.44282300  1
  O  O26  1  0.38078500  0.38078500  0.44282300  1
  O  O27  1  0.61921500  0.61921500  0.94282300  1
  O  O28  1  0.00000000  0.61921500  0.05717700  1
  O  O29  1  0.38078500  0.00000000  0.94282300  1
  O  O30  1  0.00000000  0.38078500  0.94282300  1
  O  O31  1  0.38078500  0.00000000  0.55717700  1
  O  O32  1  0.00000000  0.76359250  0.65646600  1
  O  O33  1  0.23640750  0.00000000  0.15646600  1
  O  O34  1  0.76359250  0.76359250  0.15646600  1
  O  O35  1  0.23640750  0.23640750  0.65646600  1
  O  O36  1  0.76359250  0.00000000  0.65646600  1
  O  O37  1  0.00000000  0.76359250  0.84353400  1
  O  O38  1  0.76359250  0.00000000  0.84353400  1
  O  O39  1  0.00000000  0.23640750  0.15646600  1
  O  O40  1  0.23640750  0.23640750  0.84353400  1
  O  O41  1  0.76359250  0.76359250  0.34353400  1
  O  O42  1  0.00000000  0.23640750  0.34353400  1
  O  O43  1  0.23640750  0.00000000  0.34353400  1
  O  O44  1  0.00000000  0.40299050  0.75000000  1
  O  O45  1  0.59700950  0.00000000  0.25000000  1
  O  O46  1  0.40299050  0.40299050  0.25000000  1
  O  O47  1  0.59700950  0.59700950  0.75000000  1
  O  O48  1  0.40299050  0.00000000  0.75000000  1
  O  O49  1  0.00000000  0.59700950  0.25000000  1
  O  O50  1  0.00000000  0.38078500  0.55717700  1
  O  O51  1  0.61921500  0.00000000  0.05717700  1
  O  O52  1  0.38078500  0.38078500  0.05717700  1
  O  O53  1  0.61921500  0.61921500  0.55717700  1
