# generated using pymatgen
data_SmBS3
_symmetry_space_group_name_H-M   'P 1'
_cell_length_a   6.04858400
_cell_length_b   7.44542000
_cell_length_c   8.87977800
_cell_angle_alpha   90.00000000
_cell_angle_beta   90.00000000
_cell_angle_gamma   90.00000000
_symmetry_Int_Tables_number   1
_chemical_formula_structural   SmBS3
_chemical_formula_sum   'Sm4 B4 S12'
_cell_volume   399.89412717
_cell_formula_units_Z   4
loop_
 _symmetry_equiv_pos_site_id
 _symmetry_equiv_pos_as_xyz
  1  'x, y, z'
loop_
 _atom_site_type_symbol
 _atom_site_label
 _atom_site_symmetry_multiplicity
 _atom_site_fract_x
 _atom_site_fract_y
 _atom_site_fract_z
 _atom_site_occupancy
  Sm  Sm0  1  0.93612500  0.88323600  0.24183400  1
  Sm  Sm1  1  0.56387500  0.38323600  0.24183400  1
  Sm  Sm2  1  0.43612500  0.61676400  0.74183400  1
  Sm  Sm3  1  0.06387500  0.11676400  0.74183400  1
  B  B4  1  0.40084200  0.85493900  0.07199600  1
  B  B5  1  0.59915800  0.14506100  0.57199600  1
  B  B6  1  0.09915800  0.35493900  0.07199600  1
  B  B7  1  0.90084200  0.64506100  0.57199600  1
  S  S8  1  0.66665100  0.67458900  0.44494000  1
  S  S9  1  0.63515100  0.70433800  0.04213600  1
  S  S10  1  0.86484900  0.20433800  0.04213600  1
  S  S11  1  0.13515100  0.79566200  0.54213600  1
  S  S12  1  0.83334900  0.17458900  0.44494000  1
  S  S13  1  0.89145300  0.49750800  0.73299400  1
  S  S14  1  0.10854700  0.50249200  0.23299400  1
  S  S15  1  0.39145300  0.00249200  0.23299400  1
  S  S16  1  0.60854700  0.99750800  0.73299400  1
  S  S17  1  0.33334900  0.32541100  0.94494000  1
  S  S18  1  0.36484900  0.29566200  0.54213600  1
  S  S19  1  0.16665100  0.82541100  0.94494000  1
