# generated using pymatgen
data_Te3As2
_symmetry_space_group_name_H-M   'P 1'
_cell_length_a   4.08947197
_cell_length_b   4.08947197
_cell_length_c   30.30621142
_cell_angle_alpha   90.00000000
_cell_angle_beta   90.00000000
_cell_angle_gamma   120.00000000
_symmetry_Int_Tables_number   1
_chemical_formula_structural   Te3As2
_chemical_formula_sum   'Te9 As6'
_cell_volume   438.93150356
_cell_formula_units_Z   3
loop_
 _symmetry_equiv_pos_site_id
 _symmetry_equiv_pos_as_xyz
  1  'x, y, z'
loop_
 _atom_site_type_symbol
 _atom_site_label
 _atom_site_symmetry_multiplicity
 _atom_site_fract_x
 _atom_site_fract_y
 _atom_site_fract_z
 _atom_site_occupancy
  Te  Te0  1  0.00000000  0.00000000  0.21856200  1
  Te  Te1  1  0.66666667  0.33333333  0.11477133  1
  Te  Te2  1  0.00000000  0.00000000  0.00000000  1
  Te  Te3  1  0.66666667  0.33333333  0.55189533  1
  Te  Te4  1  0.33333333  0.66666667  0.44810467  1
  Te  Te5  1  0.66666667  0.33333333  0.33333333  1
  Te  Te6  1  0.33333333  0.66666667  0.88522867  1
  Te  Te7  1  0.00000000  0.00000000  0.78143800  1
  Te  Te8  1  0.33333333  0.66666667  0.66666667  1
  As  As9  1  0.33333333  0.66666667  0.27155867  1
  As  As10  1  0.33333333  0.66666667  0.06177467  1
  As  As11  1  0.00000000  0.00000000  0.60489200  1
  As  As12  1  0.00000000  0.00000000  0.39510800  1
  As  As13  1  0.66666667  0.33333333  0.93822533  1
  As  As14  1  0.66666667  0.33333333  0.72844133  1
