# generated using pymatgen
data_Rb2Al2Si3O10
_symmetry_space_group_name_H-M   'P 1'
_cell_length_a   6.60623400
_cell_length_b   17.60660200
_cell_length_c   18.86937200
_cell_angle_alpha   90.00000000
_cell_angle_beta   90.00000000
_cell_angle_gamma   90.00000000
_symmetry_Int_Tables_number   1
_chemical_formula_structural   Rb2Al2Si3O10
_chemical_formula_sum   'Rb16 Al16 Si24 O80'
_cell_volume   2194.75954435
_cell_formula_units_Z   8
loop_
 _symmetry_equiv_pos_site_id
 _symmetry_equiv_pos_as_xyz
  1  'x, y, z'
loop_
 _atom_site_type_symbol
 _atom_site_label
 _atom_site_symmetry_multiplicity
 _atom_site_fract_x
 _atom_site_fract_y
 _atom_site_fract_z
 _atom_site_occupancy
  Rb  Rb0  1  0.87336200  0.95404600  0.18851400  1
  Rb  Rb1  1  0.87336200  0.54595400  0.31148600  1
  Rb  Rb2  1  0.62336200  0.79595400  0.43851400  1
  Rb  Rb3  1  0.62336200  0.70404600  0.06148600  1
  Rb  Rb4  1  0.37336200  0.95404600  0.68851400  1
  Rb  Rb5  1  0.37336200  0.54595400  0.81148600  1
  Rb  Rb6  1  0.12336200  0.79595400  0.93851400  1
  Rb  Rb7  1  0.12336200  0.70404600  0.56148600  1
  Rb  Rb8  1  0.37336200  0.45404600  0.18851400  1
  Rb  Rb9  1  0.37336200  0.04595400  0.31148600  1
  Rb  Rb10  1  0.12336200  0.29595400  0.43851400  1
  Rb  Rb11  1  0.12336200  0.20404600  0.06148600  1
  Rb  Rb12  1  0.87336200  0.45404600  0.68851400  1
  Rb  Rb13  1  0.87336200  0.04595400  0.81148600  1
  Rb  Rb14  1  0.62336200  0.29595400  0.93851400  1
  Rb  Rb15  1  0.62336200  0.20404600  0.56148600  1
  Al  Al16  1  0.38305050  0.95920450  0.09248200  1
  Al  Al17  1  0.38305050  0.54079550  0.40751800  1
  Al  Al18  1  0.13305050  0.79079550  0.34248200  1
  Al  Al19  1  0.13305050  0.70920450  0.15751800  1
  Al  Al20  1  0.88305050  0.95920450  0.59248200  1
  Al  Al21  1  0.88305050  0.54079550  0.90751800  1
  Al  Al22  1  0.63305050  0.79079550  0.84248200  1
  Al  Al23  1  0.63305050  0.70920450  0.65751800  1
  Al  Al24  1  0.88305050  0.45920450  0.09248200  1
  Al  Al25  1  0.88305050  0.04079550  0.40751800  1
  Al  Al26  1  0.63305050  0.29079550  0.34248200  1
  Al  Al27  1  0.63305050  0.20920450  0.15751800  1
  Al  Al28  1  0.38305050  0.45920450  0.59248200  1
  Al  Al29  1  0.38305050  0.04079550  0.90751800  1
  Al  Al30  1  0.13305050  0.29079550  0.84248200  1
  Al  Al31  1  0.13305050  0.20920450  0.65751800  1
  Si  Si32  1  0.37469550  0.85089950  0.21547700  1
  Si  Si33  1  0.37469550  0.64910050  0.28452300  1
  Si  Si34  1  0.12469550  0.89910050  0.46547700  1
  Si  Si35  1  0.12469550  0.60089950  0.03452300  1
  Si  Si36  1  0.50019100  0.50000000  0.00000000  1
  Si  Si37  1  0.75019100  0.75000000  0.25000000  1
  Si  Si38  1  0.87469550  0.85089950  0.71547700  1
  Si  Si39  1  0.87469550  0.64910050  0.78452300  1
  Si  Si40  1  0.62469550  0.89910050  0.96547700  1
  Si  Si41  1  0.62469550  0.60089950  0.53452300  1
  Si  Si42  1  0.00019100  0.50000000  0.50000000  1
  Si  Si43  1  0.25019100  0.75000000  0.75000000  1
  Si  Si44  1  0.87469550  0.35089950  0.21547700  1
  Si  Si45  1  0.87469550  0.14910050  0.28452300  1
  Si  Si46  1  0.62469550  0.39910050  0.46547700  1
  Si  Si47  1  0.62469550  0.10089950  0.03452300  1
  Si  Si48  1  0.00019100  0.00000000  0.00000000  1
  Si  Si49  1  0.25019100  0.25000000  0.25000000  1
  Si  Si50  1  0.37469550  0.35089950  0.71547700  1
  Si  Si51  1  0.37469550  0.14910050  0.78452300  1
  Si  Si52  1  0.12469550  0.39910050  0.96547700  1
  Si  Si53  1  0.12469550  0.10089950  0.53452300  1
  Si  Si54  1  0.50019100  0.00000000  0.50000000  1
  Si  Si55  1  0.75019100  0.25000000  0.75000000  1
  O  O56  1  0.60607800  0.81359650  0.21006150  1
  O  O57  1  0.60607800  0.68640350  0.28993850  1
  O  O58  1  0.35607800  0.93640350  0.46006150  1
  O  O59  1  0.35607800  0.56359650  0.03993850  1
  O  O60  1  0.22153150  0.80254500  0.16577150  1
  O  O61  1  0.22153150  0.69745500  0.33422850  1
  O  O62  1  0.97153150  0.94745500  0.41577150  1
  O  O63  1  0.97153150  0.55254500  0.08422850  1
  O  O64  1  0.54924850  0.89625100  0.04773750  1
  O  O65  1  0.54924850  0.60374900  0.45226250  1
  O  O66  1  0.29924850  0.85374900  0.29773750  1
  O  O67  1  0.29924850  0.64625100  0.20226250  1
  O  O68  1  0.39058800  0.93774950  0.18448350  1
  O  O69  1  0.39058800  0.56225050  0.31551650  1
  O  O70  1  0.14058800  0.81225050  0.43448350  1
  O  O71  1  0.14058800  0.68774950  0.06551650  1
  O  O72  1  0.13249150  0.95664650  0.06018900  1
  O  O73  1  0.13249150  0.54335350  0.43981100  1
  O  O74  1  0.88249150  0.79335350  0.31018900  1
  O  O75  1  0.88249150  0.70664650  0.18981100  1
  O  O76  1  0.10607800  0.81359650  0.71006150  1
  O  O77  1  0.10607800  0.68640350  0.78993850  1
  O  O78  1  0.85607800  0.93640350  0.96006150  1
  O  O79  1  0.85607800  0.56359650  0.53993850  1
  O  O80  1  0.72153150  0.80254500  0.66577150  1
  O  O81  1  0.72153150  0.69745500  0.83422850  1
  O  O82  1  0.47153150  0.94745500  0.91577150  1
  O  O83  1  0.47153150  0.55254500  0.58422850  1
  O  O84  1  0.04924850  0.89625100  0.54773750  1
  O  O85  1  0.04924850  0.60374900  0.95226250  1
  O  O86  1  0.79924850  0.85374900  0.79773750  1
  O  O87  1  0.79924850  0.64625100  0.70226250  1
  O  O88  1  0.89058800  0.93774950  0.68448350  1
  O  O89  1  0.89058800  0.56225050  0.81551650  1
  O  O90  1  0.64058800  0.81225050  0.93448350  1
  O  O91  1  0.64058800  0.68774950  0.56551650  1
  O  O92  1  0.63249150  0.95664650  0.56018900  1
  O  O93  1  0.63249150  0.54335350  0.93981100  1
  O  O94  1  0.38249150  0.79335350  0.81018900  1
  O  O95  1  0.38249150  0.70664650  0.68981100  1
  O  O96  1  0.10607800  0.31359650  0.21006150  1
  O  O97  1  0.10607800  0.18640350  0.28993850  1
  O  O98  1  0.85607800  0.43640350  0.46006150  1
  O  O99  1  0.85607800  0.06359650  0.03993850  1
  O  O100  1  0.72153150  0.30254500  0.16577150  1
  O  O101  1  0.72153150  0.19745500  0.33422850  1
  O  O102  1  0.47153150  0.44745500  0.41577150  1
  O  O103  1  0.47153150  0.05254500  0.08422850  1
  O  O104  1  0.04924850  0.39625100  0.04773750  1
  O  O105  1  0.04924850  0.10374900  0.45226250  1
  O  O106  1  0.79924850  0.35374900  0.29773750  1
  O  O107  1  0.79924850  0.14625100  0.20226250  1
  O  O108  1  0.89058800  0.43774950  0.18448350  1
  O  O109  1  0.89058800  0.06225050  0.31551650  1
  O  O110  1  0.64058800  0.31225050  0.43448350  1
  O  O111  1  0.64058800  0.18774950  0.06551650  1
  O  O112  1  0.63249150  0.45664650  0.06018900  1
  O  O113  1  0.63249150  0.04335350  0.43981100  1
  O  O114  1  0.38249150  0.29335350  0.31018900  1
  O  O115  1  0.38249150  0.20664650  0.18981100  1
  O  O116  1  0.60607800  0.31359650  0.71006150  1
  O  O117  1  0.60607800  0.18640350  0.78993850  1
  O  O118  1  0.35607800  0.43640350  0.96006150  1
  O  O119  1  0.35607800  0.06359650  0.53993850  1
  O  O120  1  0.22153150  0.30254500  0.66577150  1
  O  O121  1  0.22153150  0.19745500  0.83422850  1
  O  O122  1  0.97153150  0.44745500  0.91577150  1
  O  O123  1  0.97153150  0.05254500  0.58422850  1
  O  O124  1  0.54924850  0.39625100  0.54773750  1
  O  O125  1  0.54924850  0.10374900  0.95226250  1
  O  O126  1  0.29924850  0.35374900  0.79773750  1
  O  O127  1  0.29924850  0.14625100  0.70226250  1
  O  O128  1  0.39058800  0.43774950  0.68448350  1
  O  O129  1  0.39058800  0.06225050  0.81551650  1
  O  O130  1  0.14058800  0.31225050  0.93448350  1
  O  O131  1  0.14058800  0.18774950  0.56551650  1
  O  O132  1  0.13249150  0.45664650  0.56018900  1
  O  O133  1  0.13249150  0.04335350  0.93981100  1
  O  O134  1  0.88249150  0.29335350  0.81018900  1
  O  O135  1  0.88249150  0.20664650  0.68981100  1
