# generated using pymatgen
data_KAg3Se2
_symmetry_space_group_name_H-M   'P 1'
_cell_length_a   16.75717200
_cell_length_b   4.43078000
_cell_length_c   8.97282533
_cell_angle_alpha   90.00000000
_cell_angle_beta   115.45869200
_cell_angle_gamma   90.00000000
_symmetry_Int_Tables_number   1
_chemical_formula_structural   KAg3Se2
_chemical_formula_sum   'K4 Ag12 Se8'
_cell_volume   601.51655339
_cell_formula_units_Z   4
loop_
 _symmetry_equiv_pos_site_id
 _symmetry_equiv_pos_as_xyz
  1  'x, y, z'
loop_
 _atom_site_type_symbol
 _atom_site_label
 _atom_site_symmetry_multiplicity
 _atom_site_fract_x
 _atom_site_fract_y
 _atom_site_fract_z
 _atom_site_occupancy
  K  K0  1  0.13610900  0.00000000  0.05130200  1
  K  K1  1  0.36389100  0.50000000  0.94869800  1
  K  K2  1  0.63610900  0.50000000  0.05130200  1
  K  K3  1  0.86389100  0.00000000  0.94869800  1
  Ag  Ag4  1  0.05619400  0.00000000  0.40033600  1
  Ag  Ag5  1  0.44380600  0.50000000  0.59966400  1
  Ag  Ag6  1  0.18663400  0.50000000  0.43242900  1
  Ag  Ag7  1  0.31336600  0.00000000  0.56757100  1
  Ag  Ag8  1  0.09362200  0.50000000  0.64716800  1
  Ag  Ag9  1  0.40637800  0.00000000  0.35283200  1
  Ag  Ag10  1  0.55619400  0.50000000  0.40033600  1
  Ag  Ag11  1  0.94380600  0.00000000  0.59966400  1
  Ag  Ag12  1  0.68663400  0.00000000  0.43242900  1
  Ag  Ag13  1  0.81336600  0.50000000  0.56757100  1
  Ag  Ag14  1  0.59362200  0.00000000  0.64716800  1
  Ag  Ag15  1  0.90637800  0.50000000  0.35283200  1
  Se  Se16  1  0.48605900  0.00000000  0.79132000  1
  Se  Se17  1  0.01394100  0.50000000  0.20868000  1
  Se  Se18  1  0.20198200  0.00000000  0.70422700  1
  Se  Se19  1  0.29801800  0.50000000  0.29577300  1
  Se  Se20  1  0.98605900  0.50000000  0.79132000  1
  Se  Se21  1  0.51394100  0.00000000  0.20868000  1
  Se  Se22  1  0.70198200  0.50000000  0.70422700  1
  Se  Se23  1  0.79801800  0.00000000  0.29577300  1
