# generated using pymatgen
data_Li6PS5I
_symmetry_space_group_name_H-M   'P 1'
_cell_length_a   12.62692400
_cell_length_b   7.29199800
_cell_length_c   12.39791184
_cell_angle_alpha   90.00000000
_cell_angle_beta   109.48450352
_cell_angle_gamma   90.00000000
_symmetry_Int_Tables_number   1
_chemical_formula_structural   Li6PS5I
_chemical_formula_sum   'Li24 P4 S20 I4'
_cell_volume   1076.16975006
_cell_formula_units_Z   4
loop_
 _symmetry_equiv_pos_site_id
 _symmetry_equiv_pos_as_xyz
  1  'x, y, z'
loop_
 _atom_site_type_symbol
 _atom_site_label
 _atom_site_symmetry_multiplicity
 _atom_site_fract_x
 _atom_site_fract_y
 _atom_site_fract_z
 _atom_site_occupancy
  Li  Li0  1  0.48422850  0.46235750  0.63409300  1
  Li  Li1  1  0.48422850  0.53764250  0.13409300  1
  Li  Li2  1  0.48550200  0.93352300  0.15324800  1
  Li  Li3  1  0.48550200  0.06647700  0.65324800  1
  Li  Li4  1  0.30835050  0.02205150  0.88933700  1
  Li  Li5  1  0.30835050  0.97794850  0.38933700  1
  Li  Li6  1  0.71129350  0.74015650  0.55864800  1
  Li  Li7  1  0.71129350  0.25984350  0.05864800  1
  Li  Li8  1  0.49144250  0.78421350  0.88859500  1
  Li  Li9  1  0.49144250  0.21578650  0.38859500  1
  Li  Li10  1  0.78159550  0.99327650  0.38143900  1
  Li  Li11  1  0.78159550  0.00672350  0.88143900  1
  Li  Li12  1  0.98422850  0.96235750  0.63409300  1
  Li  Li13  1  0.98422850  0.03764250  0.13409300  1
  Li  Li14  1  0.98550200  0.43352300  0.15324800  1
  Li  Li15  1  0.98550200  0.56647700  0.65324800  1
  Li  Li16  1  0.80835050  0.52205150  0.88933700  1
  Li  Li17  1  0.80835050  0.47794850  0.38933700  1
  Li  Li18  1  0.21129350  0.24015650  0.55864800  1
  Li  Li19  1  0.21129350  0.75984350  0.05864800  1
  Li  Li20  1  0.99144250  0.28421350  0.88859500  1
  Li  Li21  1  0.99144250  0.71578650  0.38859500  1
  Li  Li22  1  0.28159550  0.49327650  0.38143900  1
  Li  Li23  1  0.28159550  0.50672350  0.88143900  1
  P  P24  1  0.24736050  0.24525250  0.12092100  1
  P  P25  1  0.24736050  0.75474750  0.62092100  1
  P  P26  1  0.74736050  0.74525250  0.12092100  1
  P  P27  1  0.74736050  0.25474750  0.62092100  1
  S  S28  1  0.19007400  0.98377200  0.68170300  1
  S  S29  1  0.19007400  0.01622800  0.18170300  1
  S  S30  1  0.68917200  0.98117200  0.17458000  1
  S  S31  1  0.68917200  0.01882800  0.67458000  1
  S  S32  1  0.69232300  0.74436300  0.94459500  1
  S  S33  1  0.69232300  0.25563700  0.44459500  1
  S  S34  1  0.37325700  0.75044600  0.99895600  1
  S  S35  1  0.37325700  0.24955400  0.49895600  1
  S  S36  1  0.42017150  0.75824450  0.67915800  1
  S  S37  1  0.42017150  0.24175550  0.17915800  1
  S  S38  1  0.69007400  0.48377200  0.68170300  1
  S  S39  1  0.69007400  0.51622800  0.18170300  1
  S  S40  1  0.18917200  0.48117200  0.17458000  1
  S  S41  1  0.18917200  0.51882800  0.67458000  1
  S  S42  1  0.19232300  0.24436300  0.94459500  1
  S  S43  1  0.19232300  0.75563700  0.44459500  1
  S  S44  1  0.87325700  0.25044600  0.99895600  1
  S  S45  1  0.87325700  0.74955400  0.49895600  1
  S  S46  1  0.92017150  0.25824450  0.67915800  1
  S  S47  1  0.92017150  0.74175550  0.17915800  1
  I  I48  1  0.49523000  0.23715400  0.86712900  1
  I  I49  1  0.49523000  0.76284600  0.36712900  1
  I  I50  1  0.99523000  0.73715400  0.86712900  1
  I  I51  1  0.99523000  0.26284600  0.36712900  1
