# generated using pymatgen
data_Cs2ZrSe3
_symmetry_space_group_name_H-M   'P 1'
_cell_length_a   9.63358200
_cell_length_b   13.45964600
_cell_length_c   7.22051000
_cell_angle_alpha   90.00000000
_cell_angle_beta   90.00000000
_cell_angle_gamma   90.00000000
_symmetry_Int_Tables_number   1
_chemical_formula_structural   Cs2ZrSe3
_chemical_formula_sum   'Cs8 Zr4 Se12'
_cell_volume   936.24456573
_cell_formula_units_Z   4
loop_
 _symmetry_equiv_pos_site_id
 _symmetry_equiv_pos_as_xyz
  1  'x, y, z'
loop_
 _atom_site_type_symbol
 _atom_site_label
 _atom_site_symmetry_multiplicity
 _atom_site_fract_x
 _atom_site_fract_y
 _atom_site_fract_z
 _atom_site_occupancy
  Cs  Cs0  1  0.66264550  0.84388850  0.25000000  1
  Cs  Cs1  1  0.33735450  0.15611150  0.75000000  1
  Cs  Cs2  1  0.33735450  0.84388850  0.75000000  1
  Cs  Cs3  1  0.66264550  0.15611150  0.25000000  1
  Cs  Cs4  1  0.16264550  0.34388850  0.25000000  1
  Cs  Cs5  1  0.83735450  0.65611150  0.75000000  1
  Cs  Cs6  1  0.83735450  0.34388850  0.75000000  1
  Cs  Cs7  1  0.16264550  0.65611150  0.25000000  1
  Zr  Zr8  1  0.08182800  0.00000000  0.25000000  1
  Zr  Zr9  1  0.91817200  0.00000000  0.75000000  1
  Zr  Zr10  1  0.58182800  0.50000000  0.25000000  1
  Zr  Zr11  1  0.41817200  0.50000000  0.75000000  1
  Se  Se12  1  0.65848900  0.00000000  0.75000000  1
  Se  Se13  1  0.34151100  0.00000000  0.25000000  1
  Se  Se14  1  0.50000000  0.36468000  0.50000000  1
  Se  Se15  1  0.50000000  0.36468000  0.00000000  1
  Se  Se16  1  0.50000000  0.63532000  0.50000000  1
  Se  Se17  1  0.50000000  0.63532000  0.00000000  1
  Se  Se18  1  0.15848900  0.50000000  0.75000000  1
  Se  Se19  1  0.84151100  0.50000000  0.25000000  1
  Se  Se20  1  0.00000000  0.86468000  0.50000000  1
  Se  Se21  1  0.00000000  0.86468000  0.00000000  1
  Se  Se22  1  0.00000000  0.13532000  0.50000000  1
  Se  Se23  1  0.00000000  0.13532000  0.00000000  1
