# generated using pymatgen
data_H2CSO4
_symmetry_space_group_name_H-M   'P 1'
_cell_length_a   4.80794600
_cell_length_b   11.03346600
_cell_length_c   7.50615700
_cell_angle_alpha   90.00000000
_cell_angle_beta   90.00000000
_cell_angle_gamma   90.00000000
_symmetry_Int_Tables_number   1
_chemical_formula_structural   H2CSO4
_chemical_formula_sum   'H8 C4 S4 O16'
_cell_volume   398.18893384
_cell_formula_units_Z   4
loop_
 _symmetry_equiv_pos_site_id
 _symmetry_equiv_pos_as_xyz
  1  'x, y, z'
loop_
 _atom_site_type_symbol
 _atom_site_label
 _atom_site_symmetry_multiplicity
 _atom_site_fract_x
 _atom_site_fract_y
 _atom_site_fract_z
 _atom_site_occupancy
  H  H0  1  0.65497050  0.43538350  0.57605100  1
  H  H1  1  0.84502950  0.06461650  0.07605100  1
  H  H2  1  0.15497050  0.06461650  0.42394900  1
  H  H3  1  0.34502950  0.43538350  0.92394900  1
  H  H4  1  0.15497050  0.93538350  0.57605100  1
  H  H5  1  0.34502950  0.56461650  0.07605100  1
  H  H6  1  0.65497050  0.56461650  0.42394900  1
  H  H7  1  0.84502950  0.93538350  0.92394900  1
  C  C8  1  0.02845700  0.00000000  0.50000000  1
  C  C9  1  0.97154300  0.00000000  0.00000000  1
  C  C10  1  0.52845700  0.50000000  0.50000000  1
  C  C11  1  0.47154300  0.50000000  0.00000000  1
  S  S12  1  0.00000000  0.15671700  0.75000000  1
  S  S13  1  0.50000000  0.34328300  0.25000000  1
  S  S14  1  0.50000000  0.65671700  0.75000000  1
  S  S15  1  0.00000000  0.84328300  0.25000000  1
  O  O16  1  0.15693450  0.06375550  0.88224800  1
  O  O17  1  0.34306550  0.43624450  0.38224800  1
  O  O18  1  0.65693450  0.43624450  0.11775200  1
  O  O19  1  0.84306550  0.06375550  0.61775200  1
  O  O20  1  0.78432800  0.21751000  0.84422700  1
  O  O21  1  0.71567200  0.28249000  0.34422700  1
  O  O22  1  0.28432800  0.28249000  0.15577300  1
  O  O23  1  0.21567200  0.21751000  0.65577300  1
  O  O24  1  0.65693450  0.56375550  0.88224800  1
  O  O25  1  0.84306550  0.93624450  0.38224800  1
  O  O26  1  0.15693450  0.93624450  0.11775200  1
  O  O27  1  0.34306550  0.56375550  0.61775200  1
  O  O28  1  0.28432800  0.71751000  0.84422700  1
  O  O29  1  0.21567200  0.78249000  0.34422700  1
  O  O30  1  0.78432800  0.78249000  0.15577300  1
  O  O31  1  0.71567200  0.71751000  0.65577300  1
