# generated using pymatgen
data_CdSe2O5
_symmetry_space_group_name_H-M   'P 1'
_cell_length_a   8.28153400
_cell_length_b   11.49828000
_cell_length_c   6.23840074
_cell_angle_alpha   90.00000000
_cell_angle_beta   117.81288821
_cell_angle_gamma   90.00000000
_symmetry_Int_Tables_number   1
_chemical_formula_structural   CdSe2O5
_chemical_formula_sum   'Cd4 Se8 O20'
_cell_volume   525.41565989
_cell_formula_units_Z   4
loop_
 _symmetry_equiv_pos_site_id
 _symmetry_equiv_pos_as_xyz
  1  'x, y, z'
loop_
 _atom_site_type_symbol
 _atom_site_label
 _atom_site_symmetry_multiplicity
 _atom_site_fract_x
 _atom_site_fract_y
 _atom_site_fract_z
 _atom_site_occupancy
  Cd  Cd0  1  0.50000000  0.91276900  0.75000000  1
  Cd  Cd1  1  0.50000000  0.08723100  0.25000000  1
  Cd  Cd2  1  0.00000000  0.41276900  0.75000000  1
  Cd  Cd3  1  0.00000000  0.58723100  0.25000000  1
  Se  Se4  1  0.15350050  0.85976950  0.13238300  1
  Se  Se5  1  0.84649950  0.85976950  0.36761700  1
  Se  Se6  1  0.84649950  0.14023050  0.86761700  1
  Se  Se7  1  0.15350050  0.14023050  0.63238300  1
  Se  Se8  1  0.65350050  0.35976950  0.13238300  1
  Se  Se9  1  0.34649950  0.35976950  0.36761700  1
  Se  Se10  1  0.34649950  0.64023050  0.86761700  1
  Se  Se11  1  0.65350050  0.64023050  0.63238300  1
  O  O12  1  0.50000000  0.41813300  0.25000000  1
  O  O13  1  0.50000000  0.58186700  0.75000000  1
  O  O14  1  0.34432600  0.93447800  0.32975900  1
  O  O15  1  0.65567400  0.93447800  0.17024100  1
  O  O16  1  0.65567400  0.06552200  0.67024100  1
  O  O17  1  0.34432600  0.06552200  0.82975900  1
  O  O18  1  0.70008250  0.77856150  0.73183100  1
  O  O19  1  0.29991750  0.77856150  0.76816900  1
  O  O20  1  0.29991750  0.22143850  0.26816900  1
  O  O21  1  0.70008250  0.22143850  0.23183100  1
  O  O22  1  0.00000000  0.91813300  0.25000000  1
  O  O23  1  0.00000000  0.08186700  0.75000000  1
  O  O24  1  0.84432600  0.43447800  0.32975900  1
  O  O25  1  0.15567400  0.43447800  0.17024100  1
  O  O26  1  0.15567400  0.56552200  0.67024100  1
  O  O27  1  0.84432600  0.56552200  0.82975900  1
  O  O28  1  0.20008250  0.27856150  0.73183100  1
  O  O29  1  0.79991750  0.27856150  0.76816900  1
  O  O30  1  0.79991750  0.72143850  0.26816900  1
  O  O31  1  0.20008250  0.72143850  0.23183100  1
