# generated using pymatgen
data_K2NbCuSe4
_symmetry_space_group_name_H-M   'P 1'
_cell_length_a   5.77661400
_cell_length_b   13.78178400
_cell_length_c   24.37959800
_cell_angle_alpha   90.00000000
_cell_angle_beta   90.00000000
_cell_angle_gamma   90.00000000
_symmetry_Int_Tables_number   1
_chemical_formula_structural   K2NbCuSe4
_chemical_formula_sum   'K16 Nb8 Cu8 Se32'
_cell_volume   1940.90968717
_cell_formula_units_Z   8
loop_
 _symmetry_equiv_pos_site_id
 _symmetry_equiv_pos_as_xyz
  1  'x, y, z'
loop_
 _atom_site_type_symbol
 _atom_site_label
 _atom_site_symmetry_multiplicity
 _atom_site_fract_x
 _atom_site_fract_y
 _atom_site_fract_z
 _atom_site_occupancy
  K  K0  1  0.00000000  0.00000000  0.82038000  1
  K  K1  1  0.50000000  0.00000000  0.67962000  1
  K  K2  1  0.25000000  0.75000000  0.92962000  1
  K  K3  1  0.25000000  0.75000000  0.57038000  1
  K  K4  1  0.00000000  0.50000000  0.32038000  1
  K  K5  1  0.50000000  0.50000000  0.17962000  1
  K  K6  1  0.25000000  0.25000000  0.42962000  1
  K  K7  1  0.25000000  0.25000000  0.07038000  1
  K  K8  1  0.50000000  0.00000000  0.32038000  1
  K  K9  1  0.00000000  0.00000000  0.17962000  1
  K  K10  1  0.75000000  0.75000000  0.42962000  1
  K  K11  1  0.75000000  0.75000000  0.07038000  1
  K  K12  1  0.50000000  0.50000000  0.82038000  1
  K  K13  1  0.00000000  0.50000000  0.67962000  1
  K  K14  1  0.75000000  0.25000000  0.92962000  1
  K  K15  1  0.75000000  0.25000000  0.57038000  1
  Nb  Nb16  1  0.00000000  0.00000000  0.00000000  1
  Nb  Nb17  1  0.25000000  0.75000000  0.75000000  1
  Nb  Nb18  1  0.00000000  0.50000000  0.50000000  1
  Nb  Nb19  1  0.25000000  0.25000000  0.25000000  1
  Nb  Nb20  1  0.50000000  0.00000000  0.50000000  1
  Nb  Nb21  1  0.75000000  0.75000000  0.25000000  1
  Nb  Nb22  1  0.50000000  0.50000000  0.00000000  1
  Nb  Nb23  1  0.75000000  0.25000000  0.75000000  1
  Cu  Cu24  1  0.75000000  0.75000000  0.75000000  1
  Cu  Cu25  1  0.50000000  0.00000000  0.00000000  1
  Cu  Cu26  1  0.75000000  0.25000000  0.25000000  1
  Cu  Cu27  1  0.50000000  0.50000000  0.50000000  1
  Cu  Cu28  1  0.25000000  0.75000000  0.25000000  1
  Cu  Cu29  1  0.00000000  0.00000000  0.50000000  1
  Cu  Cu30  1  0.25000000  0.25000000  0.75000000  1
  Cu  Cu31  1  0.00000000  0.50000000  0.00000000  1
  Se  Se32  1  0.49533950  0.85239450  0.80693000  1
  Se  Se33  1  0.00466050  0.64760550  0.80693000  1
  Se  Se34  1  0.75466050  0.89760550  0.94307000  1
  Se  Se35  1  0.75466050  0.60239450  0.55693000  1
  Se  Se36  1  0.74533950  0.89760550  0.55693000  1
  Se  Se37  1  0.74533950  0.60239450  0.94307000  1
  Se  Se38  1  0.00466050  0.85239450  0.69307000  1
  Se  Se39  1  0.49533950  0.64760550  0.69307000  1
  Se  Se40  1  0.49533950  0.35239450  0.30693000  1
  Se  Se41  1  0.00466050  0.14760550  0.30693000  1
  Se  Se42  1  0.75466050  0.39760550  0.44307000  1
  Se  Se43  1  0.75466050  0.10239450  0.05693000  1
  Se  Se44  1  0.74533950  0.39760550  0.05693000  1
  Se  Se45  1  0.74533950  0.10239450  0.44307000  1
  Se  Se46  1  0.00466050  0.35239450  0.19307000  1
  Se  Se47  1  0.49533950  0.14760550  0.19307000  1
  Se  Se48  1  0.99533950  0.85239450  0.30693000  1
  Se  Se49  1  0.50466050  0.64760550  0.30693000  1
  Se  Se50  1  0.25466050  0.89760550  0.44307000  1
  Se  Se51  1  0.25466050  0.60239450  0.05693000  1
  Se  Se52  1  0.24533950  0.89760550  0.05693000  1
  Se  Se53  1  0.24533950  0.60239450  0.44307000  1
  Se  Se54  1  0.50466050  0.85239450  0.19307000  1
  Se  Se55  1  0.99533950  0.64760550  0.19307000  1
  Se  Se56  1  0.99533950  0.35239450  0.80693000  1
  Se  Se57  1  0.50466050  0.14760550  0.80693000  1
  Se  Se58  1  0.25466050  0.39760550  0.94307000  1
  Se  Se59  1  0.25466050  0.10239450  0.55693000  1
  Se  Se60  1  0.24533950  0.39760550  0.55693000  1
  Se  Se61  1  0.24533950  0.10239450  0.94307000  1
  Se  Se62  1  0.50466050  0.35239450  0.69307000  1
  Se  Se63  1  0.99533950  0.14760550  0.69307000  1
