# generated using pymatgen
data_K3BP2
_symmetry_space_group_name_H-M   'P 1'
_cell_length_a   9.49904400
_cell_length_b   8.94023400
_cell_length_c   8.95878306
_cell_angle_alpha   90.00000000
_cell_angle_beta   110.63573055
_cell_angle_gamma   90.00000000
_symmetry_Int_Tables_number   1
_chemical_formula_structural   K3BP2
_chemical_formula_sum   'K12 B4 P8'
_cell_volume   711.99899672
_cell_formula_units_Z   4
loop_
 _symmetry_equiv_pos_site_id
 _symmetry_equiv_pos_as_xyz
  1  'x, y, z'
loop_
 _atom_site_type_symbol
 _atom_site_label
 _atom_site_symmetry_multiplicity
 _atom_site_fract_x
 _atom_site_fract_y
 _atom_site_fract_z
 _atom_site_occupancy
  K  K0  1  0.00000000  0.65079700  0.25000000  1
  K  K1  1  0.00000000  0.34920300  0.75000000  1
  K  K2  1  0.29807400  0.55016200  0.01898300  1
  K  K3  1  0.70192600  0.55016200  0.48101700  1
  K  K4  1  0.70192600  0.44983800  0.98101700  1
  K  K5  1  0.29807400  0.44983800  0.51898300  1
  K  K6  1  0.50000000  0.15079700  0.25000000  1
  K  K7  1  0.50000000  0.84920300  0.75000000  1
  K  K8  1  0.79807400  0.05016200  0.01898300  1
  K  K9  1  0.20192600  0.05016200  0.48101700  1
  K  K10  1  0.20192600  0.94983800  0.98101700  1
  K  K11  1  0.79807400  0.94983800  0.51898300  1
  B  B12  1  0.00000000  0.28257800  0.25000000  1
  B  B13  1  0.00000000  0.71742200  0.75000000  1
  B  B14  1  0.50000000  0.78257800  0.25000000  1
  B  B15  1  0.50000000  0.21742200  0.75000000  1
  P  P16  1  0.86959300  0.27775000  0.35195000  1
  P  P17  1  0.13040700  0.27775000  0.14805000  1
  P  P18  1  0.86959300  0.72225000  0.85195000  1
  P  P19  1  0.13040700  0.72225000  0.64805000  1
  P  P20  1  0.36959300  0.77775000  0.35195000  1
  P  P21  1  0.63040700  0.77775000  0.14805000  1
  P  P22  1  0.36959300  0.22225000  0.85195000  1
  P  P23  1  0.63040700  0.22225000  0.64805000  1
