# generated using pymatgen
data_Nd2O5
_symmetry_space_group_name_H-M   'P 1'
_cell_length_a   12.85034400
_cell_length_b   5.65126400
_cell_length_c   6.05338325
_cell_angle_alpha   90.00000000
_cell_angle_beta   113.43195046
_cell_angle_gamma   90.00000000
_symmetry_Int_Tables_number   1
_chemical_formula_structural   Nd2O5
_chemical_formula_sum   'Nd8 O20'
_cell_volume   403.34829156
_cell_formula_units_Z   4
loop_
 _symmetry_equiv_pos_site_id
 _symmetry_equiv_pos_as_xyz
  1  'x, y, z'
loop_
 _atom_site_type_symbol
 _atom_site_label
 _atom_site_symmetry_multiplicity
 _atom_site_fract_x
 _atom_site_fract_y
 _atom_site_fract_z
 _atom_site_occupancy
  Nd  Nd0  1  0.39066050  0.70974750  0.94274500  1
  Nd  Nd1  1  0.10933950  0.20974750  0.55725500  1
  Nd  Nd2  1  0.10933950  0.79025250  0.05725500  1
  Nd  Nd3  1  0.39066050  0.29025250  0.44274500  1
  Nd  Nd4  1  0.89066050  0.20974750  0.94274500  1
  Nd  Nd5  1  0.60933950  0.70974750  0.55725500  1
  Nd  Nd6  1  0.60933950  0.29025250  0.05725500  1
  Nd  Nd7  1  0.89066050  0.79025250  0.44274500  1
  O  O8  1  0.18828200  0.80427600  0.72509500  1
  O  O9  1  0.31171800  0.30427600  0.77490500  1
  O  O10  1  0.31171800  0.69572400  0.27490500  1
  O  O11  1  0.18828200  0.19572400  0.22509500  1
  O  O12  1  0.00000000  0.05518200  0.75000000  1
  O  O13  1  0.00000000  0.94481800  0.25000000  1
  O  O14  1  0.09822200  0.62198600  0.67974600  1
  O  O15  1  0.40177800  0.12198600  0.82025400  1
  O  O16  1  0.40177800  0.87801400  0.32025400  1
  O  O17  1  0.09822200  0.37801400  0.17974600  1
  O  O18  1  0.68828200  0.30427600  0.72509500  1
  O  O19  1  0.81171800  0.80427600  0.77490500  1
  O  O20  1  0.81171800  0.19572400  0.27490500  1
  O  O21  1  0.68828200  0.69572400  0.22509500  1
  O  O22  1  0.50000000  0.55518200  0.75000000  1
  O  O23  1  0.50000000  0.44481800  0.25000000  1
  O  O24  1  0.59822200  0.12198600  0.67974600  1
  O  O25  1  0.90177800  0.62198600  0.82025400  1
  O  O26  1  0.90177800  0.37801400  0.32025400  1
  O  O27  1  0.59822200  0.87801400  0.17974600  1
