# generated using pymatgen
data_GeAs
_symmetry_space_group_name_H-M   'P 1'
_cell_length_a   16.64960400
_cell_length_b   3.83325800
_cell_length_c   9.90234846
_cell_angle_alpha   90.00000000
_cell_angle_beta   104.81946942
_cell_angle_gamma   90.00000000
_symmetry_Int_Tables_number   1
_chemical_formula_structural   GeAs
_chemical_formula_sum   'Ge12 As12'
_cell_volume   610.96776081
_cell_formula_units_Z   12
loop_
 _symmetry_equiv_pos_site_id
 _symmetry_equiv_pos_as_xyz
  1  'x, y, z'
loop_
 _atom_site_type_symbol
 _atom_site_label
 _atom_site_symmetry_multiplicity
 _atom_site_fract_x
 _atom_site_fract_y
 _atom_site_fract_z
 _atom_site_occupancy
  Ge  Ge0  1  0.74018700  0.00000000  0.78995600  1
  Ge  Ge1  1  0.75981300  0.50000000  0.21004400  1
  Ge  Ge2  1  0.63070400  0.00000000  0.92028800  1
  Ge  Ge3  1  0.86929600  0.50000000  0.07971200  1
  Ge  Ge4  1  0.56745000  0.50000000  0.59135700  1
  Ge  Ge5  1  0.93255000  0.00000000  0.40864300  1
  Ge  Ge6  1  0.24018700  0.50000000  0.78995600  1
  Ge  Ge7  1  0.25981300  0.00000000  0.21004400  1
  Ge  Ge8  1  0.13070400  0.50000000  0.92028800  1
  Ge  Ge9  1  0.36929600  0.00000000  0.07971200  1
  Ge  Ge10  1  0.06745000  0.00000000  0.59135700  1
  Ge  Ge11  1  0.43255000  0.50000000  0.40864300  1
  As  As12  1  0.83889700  0.50000000  0.82019500  1
  As  As13  1  0.66110300  0.00000000  0.17980500  1
  As  As14  1  0.53670100  0.50000000  0.82738600  1
  As  As15  1  0.96329900  0.00000000  0.17261400  1
  As  As16  1  0.65354700  0.00000000  0.54611600  1
  As  As17  1  0.84645300  0.50000000  0.45388400  1
  As  As18  1  0.33889700  0.00000000  0.82019500  1
  As  As19  1  0.16110300  0.50000000  0.17980500  1
  As  As20  1  0.03670100  0.00000000  0.82738600  1
  As  As21  1  0.46329900  0.50000000  0.17261400  1
  As  As22  1  0.15354700  0.50000000  0.54611600  1
  As  As23  1  0.34645300  0.00000000  0.45388400  1
