# generated using pymatgen
data_SrAuO2
_symmetry_space_group_name_H-M   'P 1'
_cell_length_a   7.16967400
_cell_length_b   9.96410800
_cell_length_c   3.67159854
_cell_angle_alpha   90.00000000
_cell_angle_beta   90.03103861
_cell_angle_gamma   90.00000000
_symmetry_Int_Tables_number   1
_chemical_formula_structural   SrAuO2
_chemical_formula_sum   'Sr4 Au4 O8'
_cell_volume   262.29678041
_cell_formula_units_Z   4
loop_
 _symmetry_equiv_pos_site_id
 _symmetry_equiv_pos_as_xyz
  1  'x, y, z'
loop_
 _atom_site_type_symbol
 _atom_site_label
 _atom_site_symmetry_multiplicity
 _atom_site_fract_x
 _atom_site_fract_y
 _atom_site_fract_z
 _atom_site_occupancy
  Sr  Sr0  1  0.75000000  0.25000000  0.00000000  1
  Sr  Sr1  1  0.75000000  0.75000000  0.00000000  1
  Sr  Sr2  1  0.25000000  0.75000000  0.00000000  1
  Sr  Sr3  1  0.25000000  0.25000000  0.00000000  1
  Au  Au4  1  0.00000000  0.00000000  0.50000000  1
  Au  Au5  1  0.50000000  0.00000000  0.50000000  1
  Au  Au6  1  0.50000000  0.50000000  0.50000000  1
  Au  Au7  1  0.00000000  0.50000000  0.50000000  1
  O  O8  1  0.50000000  0.20714400  0.50000000  1
  O  O9  1  0.50000000  0.79285600  0.50000000  1
  O  O10  1  0.24808100  0.00000000  0.22327900  1
  O  O11  1  0.75191900  0.00000000  0.77672100  1
  O  O12  1  0.00000000  0.70714400  0.50000000  1
  O  O13  1  0.00000000  0.29285600  0.50000000  1
  O  O14  1  0.74808100  0.50000000  0.22327900  1
  O  O15  1  0.25191900  0.50000000  0.77672100  1
