# generated using pymatgen
data_SrZrN2
_symmetry_space_group_name_H-M   'P 1'
_cell_length_a   3.39791444
_cell_length_b   3.39791444
_cell_length_c   17.83177495
_cell_angle_alpha   90.00000000
_cell_angle_beta   90.00000000
_cell_angle_gamma   120.00000000
_symmetry_Int_Tables_number   1
_chemical_formula_structural   SrZrN2
_chemical_formula_sum   'Sr3 Zr3 N6'
_cell_volume   178.29948305
_cell_formula_units_Z   3
loop_
 _symmetry_equiv_pos_site_id
 _symmetry_equiv_pos_as_xyz
  1  'x, y, z'
loop_
 _atom_site_type_symbol
 _atom_site_label
 _atom_site_symmetry_multiplicity
 _atom_site_fract_x
 _atom_site_fract_y
 _atom_site_fract_z
 _atom_site_occupancy
  Sr  Sr0  1  0.00000000  0.00000000  0.00000000  1
  Sr  Sr1  1  0.66666667  0.33333333  0.33333333  1
  Sr  Sr2  1  0.33333333  0.66666667  0.66666667  1
  Zr  Zr3  1  0.33333333  0.66666667  0.16666667  1
  Zr  Zr4  1  1.00000000  1.00000000  0.50000000  1
  Zr  Zr5  1  0.66666667  0.33333333  0.83333333  1
  N  N6  1  0.00000000  0.00000000  0.23389500  1
  N  N7  1  0.66666667  0.33333333  0.09943833  1
  N  N8  1  0.66666667  0.33333333  0.56722833  1
  N  N9  1  0.33333333  0.66666667  0.43277167  1
  N  N10  1  0.33333333  0.66666667  0.90056167  1
  N  N11  1  0.00000000  0.00000000  0.76610500  1
