# generated using pymatgen
data_Na8Ta7VO24
_symmetry_space_group_name_H-M   'P 1'
_cell_length_a   7.91866600
_cell_length_b   7.91866600
_cell_length_c   7.91866600
_cell_angle_alpha   90.00000000
_cell_angle_beta   90.00000000
_cell_angle_gamma   90.00000000
_symmetry_Int_Tables_number   1
_chemical_formula_structural   Na8Ta7VO24
_chemical_formula_sum   'Na8 Ta7 V1 O24'
_cell_volume   496.54209923
_cell_formula_units_Z   1
loop_
 _symmetry_equiv_pos_site_id
 _symmetry_equiv_pos_as_xyz
  1  'x, y, z'
loop_
 _atom_site_type_symbol
 _atom_site_label
 _atom_site_symmetry_multiplicity
 _atom_site_fract_x
 _atom_site_fract_y
 _atom_site_fract_z
 _atom_site_occupancy
  Na  Na0  1  0.75146000  0.75146000  0.75146000  1
  Na  Na1  1  0.75146000  0.75146000  0.24854000  1
  Na  Na2  1  0.75146000  0.24854000  0.75146000  1
  Na  Na3  1  0.75146000  0.24854000  0.24854000  1
  Na  Na4  1  0.24854000  0.75146000  0.75146000  1
  Na  Na5  1  0.24854000  0.75146000  0.24854000  1
  Na  Na6  1  0.24854000  0.24854000  0.75146000  1
  Na  Na7  1  0.24854000  0.24854000  0.24854000  1
  Ta  Ta8  1  0.00000000  0.00000000  0.50000000  1
  Ta  Ta9  1  0.00000000  0.50000000  0.00000000  1
  Ta  Ta10  1  0.00000000  0.50000000  0.50000000  1
  Ta  Ta11  1  0.50000000  0.00000000  0.00000000  1
  Ta  Ta12  1  0.50000000  0.00000000  0.50000000  1
  Ta  Ta13  1  0.50000000  0.50000000  0.00000000  1
  Ta  Ta14  1  0.50000000  0.50000000  0.50000000  1
  V  V15  1  0.00000000  0.00000000  0.00000000  1
  O  O16  1  0.00000000  0.75606600  0.00000000  1
  O  O17  1  0.00000000  0.75053200  0.50000000  1
  O  O18  1  0.00000000  0.24393400  0.00000000  1
  O  O19  1  0.00000000  0.24946800  0.50000000  1
  O  O20  1  0.50000000  0.75053200  0.00000000  1
  O  O21  1  0.50000000  0.75005000  0.50000000  1
  O  O22  1  0.50000000  0.24946800  0.00000000  1
  O  O23  1  0.50000000  0.24995000  0.50000000  1
  O  O24  1  0.75606600  0.00000000  0.00000000  1
  O  O25  1  0.75053200  0.00000000  0.50000000  1
  O  O26  1  0.75053200  0.50000000  0.00000000  1
  O  O27  1  0.75005000  0.50000000  0.50000000  1
  O  O28  1  0.24393400  0.00000000  0.00000000  1
  O  O29  1  0.24946800  0.00000000  0.50000000  1
  O  O30  1  0.24946800  0.50000000  0.00000000  1
  O  O31  1  0.24995000  0.50000000  0.50000000  1
  O  O32  1  0.00000000  0.00000000  0.75606600  1
  O  O33  1  0.00000000  0.00000000  0.24393400  1
  O  O34  1  0.00000000  0.50000000  0.75053200  1
  O  O35  1  0.00000000  0.50000000  0.24946800  1
  O  O36  1  0.50000000  0.00000000  0.75053200  1
  O  O37  1  0.50000000  0.00000000  0.24946800  1
  O  O38  1  0.50000000  0.50000000  0.75005000  1
  O  O39  1  0.50000000  0.50000000  0.24995000  1
