# generated using pymatgen
data_TaAgO3
_symmetry_space_group_name_H-M   'P 1'
_cell_length_a   5.57565648
_cell_length_b   5.57565648
_cell_length_c   13.93333511
_cell_angle_alpha   90.00000000
_cell_angle_beta   90.00000000
_cell_angle_gamma   120.00000000
_symmetry_Int_Tables_number   1
_chemical_formula_structural   TaAgO3
_chemical_formula_sum   'Ta6 Ag6 O18'
_cell_volume   375.12648877
_cell_formula_units_Z   6
loop_
 _symmetry_equiv_pos_site_id
 _symmetry_equiv_pos_as_xyz
  1  'x, y, z'
loop_
 _atom_site_type_symbol
 _atom_site_label
 _atom_site_symmetry_multiplicity
 _atom_site_fract_x
 _atom_site_fract_y
 _atom_site_fract_z
 _atom_site_occupancy
  Ta  Ta0  1  0.00000000  0.00000000  0.00000000  1
  Ta  Ta1  1  0.33333333  0.66666667  0.16666667  1
  Ta  Ta2  1  0.66666667  0.33333333  0.33333333  1
  Ta  Ta3  1  0.00000000  0.00000000  0.50000000  1
  Ta  Ta4  1  0.33333333  0.66666667  0.66666667  1
  Ta  Ta5  1  0.66666667  0.33333333  0.83333333  1
  Ag  Ag6  1  0.66666667  0.33333333  0.08333333  1
  Ag  Ag7  1  0.00000000  0.00000000  0.25000000  1
  Ag  Ag8  1  0.33333333  0.66666667  0.41666667  1
  Ag  Ag9  1  0.66666667  0.33333333  0.58333333  1
  Ag  Ag10  1  0.00000000  0.00000000  0.75000000  1
  Ag  Ag11  1  0.33333333  0.66666667  0.91666667  1
  O  O12  1  0.55652600  0.00000000  0.25000000  1
  O  O13  1  0.44347400  0.44347400  0.25000000  1
  O  O14  1  0.00000000  0.55652600  0.25000000  1
  O  O15  1  0.11014067  0.33333333  0.08333333  1
  O  O16  1  0.66666667  0.77680733  0.08333333  1
  O  O17  1  0.22319267  0.88985933  0.08333333  1
  O  O18  1  0.22319267  0.33333333  0.58333333  1
  O  O19  1  0.11014067  0.77680733  0.58333333  1
  O  O20  1  0.66666667  0.88985933  0.58333333  1
  O  O21  1  0.77680733  0.66666667  0.41666667  1
  O  O22  1  0.33333333  0.11014067  0.41666667  1
  O  O23  1  0.88985933  0.22319267  0.41666667  1
  O  O24  1  0.88985933  0.66666667  0.91666667  1
  O  O25  1  0.77680733  0.11014067  0.91666667  1
  O  O26  1  0.33333333  0.22319267  0.91666667  1
  O  O27  1  0.44347400  0.00000000  0.75000000  1
  O  O28  1  0.00000000  0.44347400  0.75000000  1
  O  O29  1  0.55652600  0.55652600  0.75000000  1
