# generated using pymatgen
data_Li4TiO4
_symmetry_space_group_name_H-M   'P 1'
_cell_length_a   7.48567200
_cell_length_b   7.99607400
_cell_length_c   6.20379800
_cell_angle_alpha   90.00000000
_cell_angle_beta   90.00000000
_cell_angle_gamma   90.00000000
_symmetry_Int_Tables_number   1
_chemical_formula_structural   Li4TiO4
_chemical_formula_sum   'Li16 Ti4 O16'
_cell_volume   371.33445400
_cell_formula_units_Z   4
loop_
 _symmetry_equiv_pos_site_id
 _symmetry_equiv_pos_as_xyz
  1  'x, y, z'
loop_
 _atom_site_type_symbol
 _atom_site_label
 _atom_site_symmetry_multiplicity
 _atom_site_fract_x
 _atom_site_fract_y
 _atom_site_fract_z
 _atom_site_occupancy
  Li  Li0  1  0.50000000  0.34045900  0.00000000  1
  Li  Li1  1  0.50000000  0.65954100  0.50000000  1
  Li  Li2  1  0.50000000  0.65954100  0.00000000  1
  Li  Li3  1  0.50000000  0.34045900  0.50000000  1
  Li  Li4  1  0.73022150  0.14626650  0.25000000  1
  Li  Li5  1  0.26977850  0.85373350  0.75000000  1
  Li  Li6  1  0.73022150  0.85373350  0.25000000  1
  Li  Li7  1  0.26977850  0.14626650  0.75000000  1
  Li  Li8  1  0.00000000  0.84045900  0.00000000  1
  Li  Li9  1  0.00000000  0.15954100  0.50000000  1
  Li  Li10  1  0.00000000  0.15954100  0.00000000  1
  Li  Li11  1  0.00000000  0.84045900  0.50000000  1
  Li  Li12  1  0.23022150  0.64626650  0.25000000  1
  Li  Li13  1  0.76977850  0.35373350  0.75000000  1
  Li  Li14  1  0.23022150  0.35373350  0.25000000  1
  Li  Li15  1  0.76977850  0.64626650  0.75000000  1
  Ti  Ti16  1  0.34012600  0.00000000  0.25000000  1
  Ti  Ti17  1  0.65987400  0.00000000  0.75000000  1
  Ti  Ti18  1  0.84012600  0.50000000  0.25000000  1
  Ti  Ti19  1  0.15987400  0.50000000  0.75000000  1
  O  O20  1  0.46713600  0.19712900  0.25000000  1
  O  O21  1  0.53286400  0.80287100  0.75000000  1
  O  O22  1  0.20294100  0.00000000  0.00297200  1
  O  O23  1  0.79705900  0.00000000  0.50297200  1
  O  O24  1  0.20294100  0.00000000  0.49702800  1
  O  O25  1  0.79705900  0.00000000  0.99702800  1
  O  O26  1  0.46713600  0.80287100  0.25000000  1
  O  O27  1  0.53286400  0.19712900  0.75000000  1
  O  O28  1  0.96713600  0.69712900  0.25000000  1
  O  O29  1  0.03286400  0.30287100  0.75000000  1
  O  O30  1  0.70294100  0.50000000  0.00297200  1
  O  O31  1  0.29705900  0.50000000  0.50297200  1
  O  O32  1  0.70294100  0.50000000  0.49702800  1
  O  O33  1  0.29705900  0.50000000  0.99702800  1
  O  O34  1  0.96713600  0.30287100  0.25000000  1
  O  O35  1  0.03286400  0.69712900  0.75000000  1
