# generated using pymatgen
data_KLi6TaO6
_symmetry_space_group_name_H-M   'P 1'
_cell_length_a   8.31668348
_cell_length_b   8.31668348
_cell_length_c   7.29009519
_cell_angle_alpha   90.00000000
_cell_angle_beta   90.00000000
_cell_angle_gamma   120.00000000
_symmetry_Int_Tables_number   1
_chemical_formula_structural   KLi6TaO6
_chemical_formula_sum   'K3 Li18 Ta3 O18'
_cell_volume   436.68088020
_cell_formula_units_Z   3
loop_
 _symmetry_equiv_pos_site_id
 _symmetry_equiv_pos_as_xyz
  1  'x, y, z'
loop_
 _atom_site_type_symbol
 _atom_site_label
 _atom_site_symmetry_multiplicity
 _atom_site_fract_x
 _atom_site_fract_y
 _atom_site_fract_z
 _atom_site_occupancy
  K  K0  1  0.00000000  0.00000000  0.50000000  1
  K  K1  1  0.66666667  0.33333333  0.83333333  1
  K  K2  1  0.33333333  0.66666667  0.16666667  1
  Li  Li3  1  0.01014967  0.33333333  0.33333333  1
  Li  Li4  1  0.66666667  0.67681633  0.33333333  1
  Li  Li5  1  0.01014967  0.67681633  0.33333333  1
  Li  Li6  1  0.66666667  0.98985033  0.33333333  1
  Li  Li7  1  0.32318367  0.33333333  0.33333333  1
  Li  Li8  1  0.32318367  0.98985033  0.33333333  1
  Li  Li9  1  0.67681633  0.66666667  0.66666667  1
  Li  Li10  1  0.33333333  0.01014967  0.66666667  1
  Li  Li11  1  0.67681633  0.01014967  0.66666667  1
  Li  Li12  1  0.33333333  0.32318367  0.66666667  1
  Li  Li13  1  0.98985033  0.66666667  0.66666667  1
  Li  Li14  1  0.98985033  0.32318367  0.66666667  1
  Li  Li15  1  0.34348300  0.00000000  0.00000000  1
  Li  Li16  1  0.00000000  0.34348300  0.00000000  1
  Li  Li17  1  0.34348300  0.34348300  0.00000000  1
  Li  Li18  1  0.00000000  0.65651700  0.00000000  1
  Li  Li19  1  0.65651700  0.00000000  0.00000000  1
  Li  Li20  1  0.65651700  0.65651700  0.00000000  1
  Ta  Ta21  1  0.00000000  0.00000000  0.00000000  1
  Ta  Ta22  1  0.66666667  0.33333333  0.33333333  1
  Ta  Ta23  1  0.33333333  0.66666667  0.66666667  1
  O  O24  1  0.78463867  0.56927733  0.48639833  1
  O  O25  1  0.78463867  0.21536133  0.48639833  1
  O  O26  1  0.21536133  0.43072267  0.51360167  1
  O  O27  1  0.21536133  0.78463867  0.51360167  1
  O  O28  1  0.56927733  0.78463867  0.51360167  1
  O  O29  1  0.43072267  0.21536133  0.48639833  1
  O  O30  1  0.45130533  0.90261067  0.81973167  1
  O  O31  1  0.45130533  0.54869467  0.81973167  1
  O  O32  1  0.88202800  0.76405600  0.84693500  1
  O  O33  1  0.88202800  0.11797200  0.84693500  1
  O  O34  1  0.23594400  0.11797200  0.84693500  1
  O  O35  1  0.09738933  0.54869467  0.81973167  1
  O  O36  1  0.11797200  0.23594400  0.15306500  1
  O  O37  1  0.11797200  0.88202800  0.15306500  1
  O  O38  1  0.54869467  0.09738933  0.18026833  1
  O  O39  1  0.54869467  0.45130533  0.18026833  1
  O  O40  1  0.90261067  0.45130533  0.18026833  1
  O  O41  1  0.76405600  0.88202800  0.15306500  1
