# generated using pymatgen
data_K2NiP2
_symmetry_space_group_name_H-M   'P 1'
_cell_length_a   6.42116200
_cell_length_b   13.82717000
_cell_length_c   5.61145700
_cell_angle_alpha   90.00000000
_cell_angle_beta   90.00000000
_cell_angle_gamma   90.00000000
_symmetry_Int_Tables_number   1
_chemical_formula_structural   K2NiP2
_chemical_formula_sum   'K8 Ni4 P8'
_cell_volume   498.22161891
_cell_formula_units_Z   4
loop_
 _symmetry_equiv_pos_site_id
 _symmetry_equiv_pos_as_xyz
  1  'x, y, z'
loop_
 _atom_site_type_symbol
 _atom_site_label
 _atom_site_symmetry_multiplicity
 _atom_site_fract_x
 _atom_site_fract_y
 _atom_site_fract_z
 _atom_site_occupancy
  K  K0  1  0.00000000  0.41664200  0.25000000  1
  K  K1  1  0.50000000  0.28686700  0.25000000  1
  K  K2  1  0.50000000  0.08335800  0.75000000  1
  K  K3  1  0.00000000  0.21313300  0.75000000  1
  K  K4  1  0.50000000  0.91664200  0.25000000  1
  K  K5  1  0.00000000  0.78686700  0.25000000  1
  K  K6  1  0.00000000  0.58335800  0.75000000  1
  K  K7  1  0.50000000  0.71313300  0.75000000  1
  Ni  Ni8  1  0.00000000  0.00000000  0.50000000  1
  Ni  Ni9  1  0.00000000  0.00000000  0.00000000  1
  Ni  Ni10  1  0.50000000  0.50000000  0.50000000  1
  Ni  Ni11  1  0.50000000  0.50000000  0.00000000  1
  P  P12  1  0.17008100  0.10035300  0.25000000  1
  P  P13  1  0.67008100  0.39964700  0.75000000  1
  P  P14  1  0.32991900  0.39964700  0.75000000  1
  P  P15  1  0.82991900  0.10035300  0.25000000  1
  P  P16  1  0.67008100  0.60035300  0.25000000  1
  P  P17  1  0.17008100  0.89964700  0.75000000  1
  P  P18  1  0.82991900  0.89964700  0.75000000  1
  P  P19  1  0.32991900  0.60035300  0.25000000  1
