# generated using pymatgen
data_BaAuO2
_symmetry_space_group_name_H-M   'P 1'
_cell_length_a   7.45301400
_cell_length_b   10.33865400
_cell_length_c   3.93256210
_cell_angle_alpha   90.00000000
_cell_angle_beta   90.26510903
_cell_angle_gamma   90.00000000
_symmetry_Int_Tables_number   1
_chemical_formula_structural   BaAuO2
_chemical_formula_sum   'Ba4 Au4 O8'
_cell_volume   303.01691912
_cell_formula_units_Z   4
loop_
 _symmetry_equiv_pos_site_id
 _symmetry_equiv_pos_as_xyz
  1  'x, y, z'
loop_
 _atom_site_type_symbol
 _atom_site_label
 _atom_site_symmetry_multiplicity
 _atom_site_fract_x
 _atom_site_fract_y
 _atom_site_fract_z
 _atom_site_occupancy
  Ba  Ba0  1  0.75000000  0.75000000  0.00000000  1
  Ba  Ba1  1  0.75000000  0.25000000  0.00000000  1
  Ba  Ba2  1  0.25000000  0.25000000  0.00000000  1
  Ba  Ba3  1  0.25000000  0.75000000  0.00000000  1
  Au  Au4  1  0.00000000  0.00000000  0.50000000  1
  Au  Au5  1  0.50000000  0.00000000  0.50000000  1
  Au  Au6  1  0.50000000  0.50000000  0.50000000  1
  Au  Au7  1  0.00000000  0.50000000  0.50000000  1
  O  O8  1  0.24682800  0.00000000  0.27177000  1
  O  O9  1  0.50000000  0.19886400  0.50000000  1
  O  O10  1  0.50000000  0.80113600  0.50000000  1
  O  O11  1  0.75317200  0.00000000  0.72823000  1
  O  O12  1  0.74682800  0.50000000  0.27177000  1
  O  O13  1  0.00000000  0.69886400  0.50000000  1
  O  O14  1  0.00000000  0.30113600  0.50000000  1
  O  O15  1  0.25317200  0.50000000  0.72823000  1
