# generated using pymatgen
data_SrCu(SeO3)2
_symmetry_space_group_name_H-M   'P 1'
_cell_length_a   8.16312600
_cell_length_b   5.22764000
_cell_length_c   15.09780128
_cell_angle_alpha   90.00000000
_cell_angle_beta   91.00321497
_cell_angle_gamma   90.00000000
_symmetry_Int_Tables_number   1
_chemical_formula_structural   SrCu(SeO3)2
_chemical_formula_sum   'Sr4 Cu4 Se8 O24'
_cell_volume   644.18306120
_cell_formula_units_Z   4
loop_
 _symmetry_equiv_pos_site_id
 _symmetry_equiv_pos_as_xyz
  1  'x, y, z'
loop_
 _atom_site_type_symbol
 _atom_site_label
 _atom_site_symmetry_multiplicity
 _atom_site_fract_x
 _atom_site_fract_y
 _atom_site_fract_z
 _atom_site_occupancy
  Sr  Sr0  1  0.50000000  0.44033200  0.75000000  1
  Sr  Sr1  1  0.50000000  0.55966800  0.25000000  1
  Sr  Sr2  1  0.00000000  0.94033200  0.75000000  1
  Sr  Sr3  1  0.00000000  0.05966800  0.25000000  1
  Cu  Cu4  1  0.00000000  0.00000000  0.50000000  1
  Cu  Cu5  1  0.00000000  0.00000000  0.00000000  1
  Cu  Cu6  1  0.50000000  0.50000000  0.50000000  1
  Cu  Cu7  1  0.50000000  0.50000000  0.00000000  1
  Se  Se8  1  0.64295850  0.00022150  0.59362800  1
  Se  Se9  1  0.64295850  0.99977850  0.09362800  1
  Se  Se10  1  0.35704150  0.00022150  0.90637200  1
  Se  Se11  1  0.35704150  0.99977850  0.40637200  1
  Se  Se12  1  0.14295850  0.50022150  0.59362800  1
  Se  Se13  1  0.14295850  0.49977850  0.09362800  1
  Se  Se14  1  0.85704150  0.50022150  0.90637200  1
  Se  Se15  1  0.85704150  0.49977850  0.40637200  1
  O  O16  1  0.54430100  0.70474900  0.60574700  1
  O  O17  1  0.45569900  0.70474900  0.89425300  1
  O  O18  1  0.45569900  0.29525100  0.39425300  1
  O  O19  1  0.54430100  0.29525100  0.10574700  1
  O  O20  1  0.47350700  0.20813700  0.58178600  1
  O  O21  1  0.52649300  0.20813700  0.91821400  1
  O  O22  1  0.52649300  0.79186300  0.41821400  1
  O  O23  1  0.47350700  0.79186300  0.08178600  1
  O  O24  1  0.69699650  0.93880850  0.20051300  1
  O  O25  1  0.30300350  0.93880850  0.29948700  1
  O  O26  1  0.30300350  0.06119150  0.79948700  1
  O  O27  1  0.69699650  0.06119150  0.70051300  1
  O  O28  1  0.04430100  0.20474900  0.60574700  1
  O  O29  1  0.95569900  0.20474900  0.89425300  1
  O  O30  1  0.95569900  0.79525100  0.39425300  1
  O  O31  1  0.04430100  0.79525100  0.10574700  1
  O  O32  1  0.97350700  0.70813700  0.58178600  1
  O  O33  1  0.02649300  0.70813700  0.91821400  1
  O  O34  1  0.02649300  0.29186300  0.41821400  1
  O  O35  1  0.97350700  0.29186300  0.08178600  1
  O  O36  1  0.19699650  0.43880850  0.20051300  1
  O  O37  1  0.80300350  0.43880850  0.29948700  1
  O  O38  1  0.80300350  0.56119150  0.79948700  1
  O  O39  1  0.19699650  0.56119150  0.70051300  1
