# generated using pymatgen
data_LiNiSO4F
_symmetry_space_group_name_H-M   'P 1'
_cell_length_a   5.19586768
_cell_length_b   5.43208501
_cell_length_c   7.27077051
_cell_angle_alpha   107.39114130
_cell_angle_beta   108.00369592
_cell_angle_gamma   97.28651564
_symmetry_Int_Tables_number   1
_chemical_formula_structural   LiNiSO4F
_chemical_formula_sum   'Li2 Ni2 S2 O8 F2'
_cell_volume   180.72897134
_cell_formula_units_Z   2
loop_
 _symmetry_equiv_pos_site_id
 _symmetry_equiv_pos_as_xyz
  1  'x, y, z'
loop_
 _atom_site_type_symbol
 _atom_site_label
 _atom_site_symmetry_multiplicity
 _atom_site_fract_x
 _atom_site_fract_y
 _atom_site_fract_z
 _atom_site_occupancy
  Li  Li0  1  0.26727700  0.62946350  0.78715150  1
  Li  Li1  1  0.73272300  0.37053650  0.21284850  1
  Ni  Ni2  1  0.00000000  0.00000000  0.50000000  1
  Ni  Ni3  1  0.00000000  0.00000000  0.00000000  1
  S  S4  1  0.32670600  0.63902750  0.24884700  1
  S  S5  1  0.67329400  0.36097250  0.75115300  1
  O  O6  1  0.60858100  0.75556150  0.41036150  1
  O  O7  1  0.39141900  0.24443850  0.58963850  1
  O  O8  1  0.10807100  0.65675200  0.34287050  1
  O  O9  1  0.89192900  0.34324800  0.65712950  1
  O  O10  1  0.31835100  0.35333400  0.14402400  1
  O  O11  1  0.68164900  0.64666600  0.85597600  1
  O  O12  1  0.27545000  0.77147500  0.09256150  1
  O  O13  1  0.72455000  0.22852500  0.90743850  1
  F  F14  1  0.11653300  0.91316150  0.75579650  1
  F  F15  1  0.88346700  0.08683850  0.24420350  1
