# generated using pymatgen
data_AgNO2
_symmetry_space_group_name_H-M   'P 1'
_cell_length_a   7.73248600
_cell_length_b   5.06542200
_cell_length_c   7.56114136
_cell_angle_alpha   90.00000000
_cell_angle_beta   118.99309445
_cell_angle_gamma   90.00000000
_symmetry_Int_Tables_number   1
_chemical_formula_structural   AgNO2
_chemical_formula_sum   'Ag4 N4 O8'
_cell_volume   259.04212907
_cell_formula_units_Z   4
loop_
 _symmetry_equiv_pos_site_id
 _symmetry_equiv_pos_as_xyz
  1  'x, y, z'
loop_
 _atom_site_type_symbol
 _atom_site_label
 _atom_site_symmetry_multiplicity
 _atom_site_fract_x
 _atom_site_fract_y
 _atom_site_fract_z
 _atom_site_occupancy
  Ag  Ag0  1  0.79650000  0.76096000  0.28653000  1
  Ag  Ag1  1  0.20350000  0.76096000  0.71347000  1
  Ag  Ag2  1  0.29650000  0.26096000  0.28653000  1
  Ag  Ag3  1  0.70350000  0.26096000  0.71347000  1
  N  N4  1  0.32011000  0.68563000  0.25521000  1
  N  N5  1  0.67989000  0.68563000  0.74479000  1
  N  N6  1  0.82011000  0.18563000  0.25521000  1
  N  N7  1  0.17989000  0.18563000  0.74479000  1
  O  O8  1  0.10833000  0.28954000  0.84423000  1
  O  O9  1  0.74346000  0.84050000  0.65505000  1
  O  O10  1  0.25654000  0.84050000  0.34495000  1
  O  O11  1  0.39167000  0.78954000  0.15577000  1
  O  O12  1  0.60833000  0.78954000  0.84423000  1
  O  O13  1  0.24346000  0.34050000  0.65505000  1
  O  O14  1  0.75654000  0.34050000  0.34495000  1
  O  O15  1  0.89167000  0.28954000  0.15577000  1
