# generated using pymatgen
data_RbSrCl3
_symmetry_space_group_name_H-M   'P 1'
_cell_length_a   8.06003200
_cell_length_b   8.06920600
_cell_length_c   5.69859181
_cell_angle_alpha   90.00000000
_cell_angle_beta   90.10629491
_cell_angle_gamma   90.00000000
_symmetry_Int_Tables_number   1
_chemical_formula_structural   RbSrCl3
_chemical_formula_sum   'Rb2 Sr2 Cl6'
_cell_volume   370.62470991
_cell_formula_units_Z   2
loop_
 _symmetry_equiv_pos_site_id
 _symmetry_equiv_pos_as_xyz
  1  'x, y, z'
loop_
 _atom_site_type_symbol
 _atom_site_label
 _atom_site_symmetry_multiplicity
 _atom_site_fract_x
 _atom_site_fract_y
 _atom_site_fract_z
 _atom_site_occupancy
  Rb  Rb0  1  0.00261600  0.00000000  0.00123300  1
  Rb  Rb1  1  0.50261600  0.50000000  0.00123300  1
  Sr  Sr2  1  0.50217800  0.00000000  0.51522900  1
  Sr  Sr3  1  0.00217800  0.50000000  0.51522900  1
  Cl  Cl4  1  0.25155450  0.74953450  0.51638500  1
  Cl  Cl5  1  0.48892900  0.00000000  0.01526100  1
  Cl  Cl6  1  0.25155450  0.25046550  0.51638500  1
  Cl  Cl7  1  0.75155450  0.24953450  0.51638500  1
  Cl  Cl8  1  0.98892900  0.50000000  0.01526100  1
  Cl  Cl9  1  0.75155450  0.75046550  0.51638500  1
