# generated using pymatgen
data_Ca(BH4)2
_symmetry_space_group_name_H-M   'P 1'
_cell_length_a   6.80597000
_cell_length_b   6.80597000
_cell_length_c   4.36131900
_cell_angle_alpha   90.00000000
_cell_angle_beta   90.00000000
_cell_angle_gamma   90.00000000
_symmetry_Int_Tables_number   1
_chemical_formula_structural   Ca(BH4)2
_chemical_formula_sum   'Ca2 B4 H16'
_cell_volume   202.02165021
_cell_formula_units_Z   2
loop_
 _symmetry_equiv_pos_site_id
 _symmetry_equiv_pos_as_xyz
  1  'x, y, z'
loop_
 _atom_site_type_symbol
 _atom_site_label
 _atom_site_symmetry_multiplicity
 _atom_site_fract_x
 _atom_site_fract_y
 _atom_site_fract_z
 _atom_site_occupancy
  Ca  Ca0  1  0.00000000  0.50000000  0.01722000  1
  Ca  Ca1  1  0.50000000  0.00000000  0.51722000  1
  B  B2  1  0.31173200  0.21355000  0.02332600  1
  B  B3  1  0.68826800  0.78645000  0.02332600  1
  B  B4  1  0.78645000  0.31173200  0.52332600  1
  B  B5  1  0.21355000  0.68826800  0.52332600  1
  H  H6  1  0.48550100  0.16637800  0.02412200  1
  H  H7  1  0.51449900  0.83362200  0.02412200  1
  H  H8  1  0.31844900  0.39168100  0.05637200  1
  H  H9  1  0.68155100  0.60831900  0.05637200  1
  H  H10  1  0.22002400  0.13421100  0.23127700  1
  H  H11  1  0.77997600  0.86578900  0.23127700  1
  H  H12  1  0.83080800  0.23302400  0.28029500  1
  H  H13  1  0.16919200  0.76697600  0.28029500  1
  H  H14  1  0.83362200  0.48550100  0.52412200  1
  H  H15  1  0.16637800  0.51449900  0.52412200  1
  H  H16  1  0.60831900  0.31844900  0.55637200  1
  H  H17  1  0.39168100  0.68155100  0.55637200  1
  H  H18  1  0.86578900  0.22002400  0.73127700  1
  H  H19  1  0.13421100  0.77997600  0.73127700  1
  H  H20  1  0.23302400  0.16919200  0.78029500  1
  H  H21  1  0.76697600  0.83080800  0.78029500  1
