# generated using pymatgen
data_SrTcN3
_symmetry_space_group_name_H-M   'P 1'
_cell_length_a   12.54705400
_cell_length_b   3.77278000
_cell_length_c   6.70894538
_cell_angle_alpha   90.00000000
_cell_angle_beta   105.01360889
_cell_angle_gamma   90.00000000
_symmetry_Int_Tables_number   1
_chemical_formula_structural   SrTcN3
_chemical_formula_sum   'Sr4 Tc4 N12'
_cell_volume   306.74227178
_cell_formula_units_Z   4
loop_
 _symmetry_equiv_pos_site_id
 _symmetry_equiv_pos_as_xyz
  1  'x, y, z'
loop_
 _atom_site_type_symbol
 _atom_site_label
 _atom_site_symmetry_multiplicity
 _atom_site_fract_x
 _atom_site_fract_y
 _atom_site_fract_z
 _atom_site_occupancy
  Sr  Sr0  1  0.61608000  0.00000000  0.32986000  1
  Sr  Sr1  1  0.88392000  0.50000000  0.67014000  1
  Sr  Sr2  1  0.11608000  0.50000000  0.32986000  1
  Sr  Sr3  1  0.38392000  0.00000000  0.67014000  1
  Tc  Tc4  1  0.65726000  0.50000000  0.85940000  1
  Tc  Tc5  1  0.84274000  0.00000000  0.14060000  1
  Tc  Tc6  1  0.15726000  0.00000000  0.85940000  1
  Tc  Tc7  1  0.34274000  0.50000000  0.14060000  1
  N  N8  1  0.81808000  0.50000000  0.01223000  1
  N  N9  1  0.50680000  0.50000000  0.90856000  1
  N  N10  1  0.99320000  0.00000000  0.09144000  1
  N  N11  1  0.65632000  0.50000000  0.59580000  1
  N  N12  1  0.68192000  0.00000000  0.98777000  1
  N  N13  1  0.84368000  0.00000000  0.40420000  1
  N  N14  1  0.31808000  0.00000000  0.01223000  1
  N  N15  1  0.00680000  0.00000000  0.90856000  1
  N  N16  1  0.49320000  0.50000000  0.09144000  1
  N  N17  1  0.15632000  0.00000000  0.59580000  1
  N  N18  1  0.18192000  0.50000000  0.98777000  1
  N  N19  1  0.34368000  0.50000000  0.40420000  1
