# generated using pymatgen
data_Ho2Se3
_symmetry_space_group_name_H-M   'P 1'
_cell_length_a   8.22155600
_cell_length_b   11.51283000
_cell_length_c   24.45075000
_cell_angle_alpha   90.00000000
_cell_angle_beta   90.00000000
_cell_angle_gamma   90.00000000
_symmetry_Int_Tables_number   1
_chemical_formula_structural   Ho2Se3
_chemical_formula_sum   'Ho32 Se48'
_cell_volume   2314.34604701
_cell_formula_units_Z   16
loop_
 _symmetry_equiv_pos_site_id
 _symmetry_equiv_pos_as_xyz
  1  'x, y, z'
loop_
 _atom_site_type_symbol
 _atom_site_label
 _atom_site_symmetry_multiplicity
 _atom_site_fract_x
 _atom_site_fract_y
 _atom_site_fract_z
 _atom_site_occupancy
  Ho  Ho0  1  0.75000000  0.25000000  0.00275000  1
  Ho  Ho1  1  0.75000000  0.25000000  0.49725000  1
  Ho  Ho2  1  0.50000000  0.00000000  0.24725000  1
  Ho  Ho3  1  0.00000000  0.00000000  0.25275000  1
  Ho  Ho4  1  0.75000000  0.75000000  0.16610000  1
  Ho  Ho5  1  0.75000000  0.75000000  0.33390000  1
  Ho  Ho6  1  0.00000000  0.00000000  0.08390000  1
  Ho  Ho7  1  0.50000000  0.00000000  0.41610000  1
  Ho  Ho8  1  0.75000000  0.75000000  0.50275000  1
  Ho  Ho9  1  0.75000000  0.75000000  0.99725000  1
  Ho  Ho10  1  0.50000000  0.50000000  0.74725000  1
  Ho  Ho11  1  0.00000000  0.50000000  0.75275000  1
  Ho  Ho12  1  0.75000000  0.25000000  0.66610000  1
  Ho  Ho13  1  0.75000000  0.25000000  0.83390000  1
  Ho  Ho14  1  0.00000000  0.50000000  0.58390000  1
  Ho  Ho15  1  0.50000000  0.50000000  0.91610000  1
  Ho  Ho16  1  0.25000000  0.25000000  0.50275000  1
  Ho  Ho17  1  0.25000000  0.25000000  0.99725000  1
  Ho  Ho18  1  0.00000000  0.00000000  0.74725000  1
  Ho  Ho19  1  0.50000000  0.00000000  0.75275000  1
  Ho  Ho20  1  0.25000000  0.75000000  0.66610000  1
  Ho  Ho21  1  0.25000000  0.75000000  0.83390000  1
  Ho  Ho22  1  0.50000000  0.00000000  0.58390000  1
  Ho  Ho23  1  0.00000000  0.00000000  0.91610000  1
  Ho  Ho24  1  0.25000000  0.75000000  0.00275000  1
  Ho  Ho25  1  0.25000000  0.75000000  0.49725000  1
  Ho  Ho26  1  0.00000000  0.50000000  0.24725000  1
  Ho  Ho27  1  0.50000000  0.50000000  0.25275000  1
  Ho  Ho28  1  0.25000000  0.25000000  0.16610000  1
  Ho  Ho29  1  0.25000000  0.25000000  0.33390000  1
  Ho  Ho30  1  0.50000000  0.50000000  0.08390000  1
  Ho  Ho31  1  0.00000000  0.50000000  0.41610000  1
  Se  Se32  1  0.99193400  0.74675350  0.41905750  1
  Se  Se33  1  0.49193400  0.25324650  0.08094250  1
  Se  Se34  1  0.50806600  0.74675350  0.08094250  1
  Se  Se35  1  0.00806600  0.25324650  0.41905750  1
  Se  Se36  1  0.25806600  0.00324650  0.33094250  1
  Se  Se37  1  0.75806600  0.99675350  0.16905750  1
  Se  Se38  1  0.24193400  0.00324650  0.16905750  1
  Se  Se39  1  0.74193400  0.99675350  0.33094250  1
  Se  Se40  1  0.75813800  0.00000000  0.00000000  1
  Se  Se41  1  0.24186200  0.00000000  0.00000000  1
  Se  Se42  1  0.99186200  0.75000000  0.25000000  1
  Se  Se43  1  0.50813800  0.75000000  0.25000000  1
  Se  Se44  1  0.99193400  0.24675350  0.91905750  1
  Se  Se45  1  0.49193400  0.75324650  0.58094250  1
  Se  Se46  1  0.50806600  0.24675350  0.58094250  1
  Se  Se47  1  0.00806600  0.75324650  0.91905750  1
  Se  Se48  1  0.25806600  0.50324650  0.83094250  1
  Se  Se49  1  0.75806600  0.49675350  0.66905750  1
  Se  Se50  1  0.24193400  0.50324650  0.66905750  1
  Se  Se51  1  0.74193400  0.49675350  0.83094250  1
  Se  Se52  1  0.75813800  0.50000000  0.50000000  1
  Se  Se53  1  0.24186200  0.50000000  0.50000000  1
  Se  Se54  1  0.99186200  0.25000000  0.75000000  1
  Se  Se55  1  0.50813800  0.25000000  0.75000000  1
  Se  Se56  1  0.49193400  0.74675350  0.91905750  1
  Se  Se57  1  0.99193400  0.25324650  0.58094250  1
  Se  Se58  1  0.00806600  0.74675350  0.58094250  1
  Se  Se59  1  0.50806600  0.25324650  0.91905750  1
  Se  Se60  1  0.75806600  0.00324650  0.83094250  1
  Se  Se61  1  0.25806600  0.99675350  0.66905750  1
  Se  Se62  1  0.74193400  0.00324650  0.66905750  1
  Se  Se63  1  0.24193400  0.99675350  0.83094250  1
  Se  Se64  1  0.25813800  0.00000000  0.50000000  1
  Se  Se65  1  0.74186200  0.00000000  0.50000000  1
  Se  Se66  1  0.49186200  0.75000000  0.75000000  1
  Se  Se67  1  0.00813800  0.75000000  0.75000000  1
  Se  Se68  1  0.49193400  0.24675350  0.41905750  1
  Se  Se69  1  0.99193400  0.75324650  0.08094250  1
  Se  Se70  1  0.00806600  0.24675350  0.08094250  1
  Se  Se71  1  0.50806600  0.75324650  0.41905750  1
  Se  Se72  1  0.75806600  0.50324650  0.33094250  1
  Se  Se73  1  0.25806600  0.49675350  0.16905750  1
  Se  Se74  1  0.74193400  0.50324650  0.16905750  1
  Se  Se75  1  0.24193400  0.49675350  0.33094250  1
  Se  Se76  1  0.25813800  0.50000000  0.00000000  1
  Se  Se77  1  0.74186200  0.50000000  0.00000000  1
  Se  Se78  1  0.49186200  0.25000000  0.25000000  1
  Se  Se79  1  0.00813800  0.25000000  0.25000000  1
