# generated using pymatgen
data_HfGeO4
_symmetry_space_group_name_H-M   'P 1'
_cell_length_a   4.88853400
_cell_length_b   4.88853400
_cell_length_c   10.59637800
_cell_angle_alpha   90.00000000
_cell_angle_beta   90.00000000
_cell_angle_gamma   90.00000000
_symmetry_Int_Tables_number   1
_chemical_formula_structural   HfGeO4
_chemical_formula_sum   'Hf4 Ge4 O16'
_cell_volume   253.22974779
_cell_formula_units_Z   4
loop_
 _symmetry_equiv_pos_site_id
 _symmetry_equiv_pos_as_xyz
  1  'x, y, z'
loop_
 _atom_site_type_symbol
 _atom_site_label
 _atom_site_symmetry_multiplicity
 _atom_site_fract_x
 _atom_site_fract_y
 _atom_site_fract_z
 _atom_site_occupancy
  Hf  Hf0  1  0.00000000  0.00000000  0.00000000  1
  Hf  Hf1  1  0.00000000  0.50000000  0.25000000  1
  Hf  Hf2  1  0.50000000  0.50000000  0.50000000  1
  Hf  Hf3  1  0.50000000  0.00000000  0.75000000  1
  Ge  Ge4  1  0.50000000  0.50000000  0.00000000  1
  Ge  Ge5  1  0.50000000  0.00000000  0.25000000  1
  Ge  Ge6  1  0.00000000  0.00000000  0.50000000  1
  Ge  Ge7  1  0.00000000  0.50000000  0.75000000  1
  O  O8  1  0.76943500  0.17465100  0.16805600  1
  O  O9  1  0.82534900  0.26943500  0.41805600  1
  O  O10  1  0.17465100  0.73056500  0.41805600  1
  O  O11  1  0.23056500  0.82534900  0.16805600  1
  O  O12  1  0.76943500  0.67465100  0.08194400  1
  O  O13  1  0.32534900  0.26943500  0.33194400  1
  O  O14  1  0.67465100  0.73056500  0.33194400  1
  O  O15  1  0.23056500  0.32534900  0.08194400  1
  O  O16  1  0.26943500  0.67465100  0.66805600  1
  O  O17  1  0.32534900  0.76943500  0.91805600  1
  O  O18  1  0.67465100  0.23056500  0.91805600  1
  O  O19  1  0.73056500  0.32534900  0.66805600  1
  O  O20  1  0.26943500  0.17465100  0.58194400  1
  O  O21  1  0.82534900  0.76943500  0.83194400  1
  O  O22  1  0.17465100  0.23056500  0.83194400  1
  O  O23  1  0.73056500  0.82534900  0.58194400  1
