# generated using pymatgen
data_Na3Ni2SbO6
_symmetry_space_group_name_H-M   'P 1'
_cell_length_a   5.36623882
_cell_length_b   9.29053150
_cell_length_c   5.68393855
_cell_angle_alpha   90.00000000
_cell_angle_beta   108.28297319
_cell_angle_gamma   90.00000000
_symmetry_Int_Tables_number   1
_chemical_formula_structural   Na3Ni2SbO6
_chemical_formula_sum   'Na6 Ni4 Sb2 O12'
_cell_volume   269.06888205
_cell_formula_units_Z   2
loop_
 _symmetry_equiv_pos_site_id
 _symmetry_equiv_pos_as_xyz
  1  'x, y, z'
loop_
 _atom_site_type_symbol
 _atom_site_label
 _atom_site_symmetry_multiplicity
 _atom_site_fract_x
 _atom_site_fract_y
 _atom_site_fract_z
 _atom_site_occupancy
  Na  Na0  1  0.50000000  0.00000000  0.50000000  1
  Na  Na1  1  0.50000000  0.67475350  0.50000000  1
  Na  Na2  1  0.50000000  0.32524650  0.50000000  1
  Na  Na3  1  0.00000000  0.50000000  0.50000000  1
  Na  Na4  1  0.00000000  0.17475350  0.50000000  1
  Na  Na5  1  0.00000000  0.82524650  0.50000000  1
  Ni  Ni6  1  0.50000000  0.83379800  0.00000000  1
  Ni  Ni7  1  0.50000000  0.16620200  0.00000000  1
  Ni  Ni8  1  0.00000000  0.33379800  0.00000000  1
  Ni  Ni9  1  0.00000000  0.66620200  0.00000000  1
  Sb  Sb10  1  0.00000000  0.00000000  0.00000000  1
  Sb  Sb11  1  0.50000000  0.50000000  0.00000000  1
  O  O12  1  0.75026350  0.00000000  0.20428400  1
  O  O13  1  0.24973650  0.00000000  0.79571600  1
  O  O14  1  0.77285350  0.84076050  0.79558600  1
  O  O15  1  0.77285350  0.15923950  0.79558600  1
  O  O16  1  0.22714650  0.84076050  0.20441400  1
  O  O17  1  0.22714650  0.15923950  0.20441400  1
  O  O18  1  0.25026350  0.50000000  0.20428400  1
  O  O19  1  0.74973650  0.50000000  0.79571600  1
  O  O20  1  0.27285350  0.34076050  0.79558600  1
  O  O21  1  0.27285350  0.65923950  0.79558600  1
  O  O22  1  0.72714650  0.34076050  0.20441400  1
  O  O23  1  0.72714650  0.65923950  0.20441400  1
