# generated using pymatgen
data_K2AgP
_symmetry_space_group_name_H-M   'P 1'
_cell_length_a   7.74897000
_cell_length_b   9.94206000
_cell_length_c   6.05052800
_cell_angle_alpha   90.00000000
_cell_angle_beta   90.00000000
_cell_angle_gamma   90.00000000
_symmetry_Int_Tables_number   1
_chemical_formula_structural   K2AgP
_chemical_formula_sum   'K8 Ag4 P4'
_cell_volume   466.13706181
_cell_formula_units_Z   4
loop_
 _symmetry_equiv_pos_site_id
 _symmetry_equiv_pos_as_xyz
  1  'x, y, z'
loop_
 _atom_site_type_symbol
 _atom_site_label
 _atom_site_symmetry_multiplicity
 _atom_site_fract_x
 _atom_site_fract_y
 _atom_site_fract_z
 _atom_site_occupancy
  K  K0  1  0.64031950  0.32811750  0.75000000  1
  K  K1  1  0.64031950  0.67188250  0.75000000  1
  K  K2  1  0.35968050  0.67188250  0.25000000  1
  K  K3  1  0.35968050  0.32811750  0.25000000  1
  K  K4  1  0.14031950  0.82811750  0.75000000  1
  K  K5  1  0.14031950  0.17188250  0.75000000  1
  K  K6  1  0.85968050  0.17188250  0.25000000  1
  K  K7  1  0.85968050  0.82811750  0.25000000  1
  Ag  Ag8  1  0.50000000  0.00000000  0.50000000  1
  Ag  Ag9  1  0.50000000  0.00000000  0.00000000  1
  Ag  Ag10  1  0.00000000  0.50000000  0.50000000  1
  Ag  Ag11  1  0.00000000  0.50000000  0.00000000  1
  P  P12  1  0.75177800  0.00000000  0.75000000  1
  P  P13  1  0.24822200  0.00000000  0.25000000  1
  P  P14  1  0.25177800  0.50000000  0.75000000  1
  P  P15  1  0.74822200  0.50000000  0.25000000  1
