# generated using pymatgen
data_CO2
_symmetry_space_group_name_H-M   'P 1'
_cell_length_a   9.32942800
_cell_length_b   9.32942800
_cell_length_c   7.75999600
_cell_angle_alpha   90.00000000
_cell_angle_beta   90.00000000
_cell_angle_gamma   90.00000000
_symmetry_Int_Tables_number   1
_chemical_formula_structural   CO2
_chemical_formula_sum   'C16 O32'
_cell_volume   675.41629187
_cell_formula_units_Z   16
loop_
 _symmetry_equiv_pos_site_id
 _symmetry_equiv_pos_as_xyz
  1  'x, y, z'
loop_
 _atom_site_type_symbol
 _atom_site_label
 _atom_site_symmetry_multiplicity
 _atom_site_fract_x
 _atom_site_fract_y
 _atom_site_fract_z
 _atom_site_occupancy
  C  C0  1  0.67714800  0.31168100  0.31476800  1
  C  C1  1  0.82285200  0.18831900  0.81476800  1
  C  C2  1  0.81168100  0.32285200  0.56476800  1
  C  C3  1  0.18831900  0.67714800  0.56476800  1
  C  C4  1  0.32285200  0.18831900  0.43523200  1
  C  C5  1  0.67714800  0.81168100  0.43523200  1
  C  C6  1  0.18831900  0.17714800  0.18523200  1
  C  C7  1  0.31168100  0.32285200  0.68523200  1
  C  C8  1  0.17714800  0.81168100  0.81476800  1
  C  C9  1  0.32285200  0.68831900  0.31476800  1
  C  C10  1  0.31168100  0.82285200  0.06476800  1
  C  C11  1  0.68831900  0.17714800  0.06476800  1
  C  C12  1  0.82285200  0.68831900  0.93523200  1
  C  C13  1  0.17714800  0.31168100  0.93523200  1
  C  C14  1  0.68831900  0.67714800  0.68523200  1
  C  C15  1  0.81168100  0.82285200  0.18523200  1
  O  O16  1  0.68054400  0.29769800  0.49635800  1
  O  O17  1  0.31945600  0.70230200  0.49635800  1
  O  O18  1  0.79769800  0.31945600  0.74635800  1
  O  O19  1  0.70230200  0.18054400  0.24635800  1
  O  O20  1  0.81945600  0.70230200  0.75364200  1
  O  O21  1  0.68054400  0.79769800  0.25364200  1
  O  O22  1  0.70230200  0.68054400  0.50364200  1
  O  O23  1  0.29769800  0.31945600  0.50364200  1
  O  O24  1  0.64827300  0.42022800  0.24142800  1
  O  O25  1  0.85172700  0.07977200  0.74142800  1
  O  O26  1  0.92022800  0.35172700  0.49142800  1
  O  O27  1  0.57977200  0.14827300  0.99142800  1
  O  O28  1  0.85172700  0.57977200  0.00857200  1
  O  O29  1  0.64827300  0.92022800  0.50857200  1
  O  O30  1  0.07977200  0.14827300  0.25857200  1
  O  O31  1  0.42022800  0.35172700  0.75857200  1
  O  O32  1  0.18054400  0.79769800  0.99635800  1
  O  O33  1  0.81945600  0.20230200  0.99635800  1
  O  O34  1  0.29769800  0.81945600  0.24635800  1
  O  O35  1  0.20230200  0.68054400  0.74635800  1
  O  O36  1  0.31945600  0.20230200  0.25364200  1
  O  O37  1  0.18054400  0.29769800  0.75364200  1
  O  O38  1  0.20230200  0.18054400  0.00364200  1
  O  O39  1  0.79769800  0.81945600  0.00364200  1
  O  O40  1  0.14827300  0.92022800  0.74142800  1
  O  O41  1  0.35172700  0.57977200  0.24142800  1
  O  O42  1  0.42022800  0.85172700  0.99142800  1
  O  O43  1  0.07977200  0.64827300  0.49142800  1
  O  O44  1  0.35172700  0.07977200  0.50857200  1
  O  O45  1  0.14827300  0.42022800  0.00857200  1
  O  O46  1  0.57977200  0.64827300  0.75857200  1
  O  O47  1  0.92022800  0.85172700  0.25857200  1
