# generated using pymatgen
data_Cd2TeCl2O3
_symmetry_space_group_name_H-M   'P 1'
_cell_length_a   8.37079300
_cell_length_b   11.47085300
_cell_length_c   16.05811200
_cell_angle_alpha   90.00000000
_cell_angle_beta   90.00000000
_cell_angle_gamma   90.00000000
_symmetry_Int_Tables_number   1
_chemical_formula_structural   Cd2TeCl2O3
_chemical_formula_sum   'Cd16 Te8 Cl16 O24'
_cell_volume   1541.90209809
_cell_formula_units_Z   8
loop_
 _symmetry_equiv_pos_site_id
 _symmetry_equiv_pos_as_xyz
  1  'x, y, z'
loop_
 _atom_site_type_symbol
 _atom_site_label
 _atom_site_symmetry_multiplicity
 _atom_site_fract_x
 _atom_site_fract_y
 _atom_site_fract_z
 _atom_site_occupancy
  Cd  Cd0  1  0.89533000  0.23129900  0.47267400  1
  Cd  Cd1  1  0.65399200  0.99520300  0.38335700  1
  Cd  Cd2  1  0.60467000  0.76870100  0.97267400  1
  Cd  Cd3  1  0.89533000  0.26870100  0.02732600  1
  Cd  Cd4  1  0.84600800  0.00479700  0.88335700  1
  Cd  Cd5  1  0.34600800  0.00479700  0.61664300  1
  Cd  Cd6  1  0.10467000  0.73129900  0.97267400  1
  Cd  Cd7  1  0.65399200  0.50479700  0.11664300  1
  Cd  Cd8  1  0.39533000  0.26870100  0.47267400  1
  Cd  Cd9  1  0.84600800  0.49520300  0.61664300  1
  Cd  Cd10  1  0.15399200  0.50479700  0.38335700  1
  Cd  Cd11  1  0.10467000  0.76870100  0.52732600  1
  Cd  Cd12  1  0.39533000  0.23129900  0.02732600  1
  Cd  Cd13  1  0.60467000  0.73129900  0.52732600  1
  Cd  Cd14  1  0.34600800  0.49520300  0.88335700  1
  Cd  Cd15  1  0.15399200  0.99520300  0.11664300  1
  Te  Te16  1  0.28626900  0.96650400  0.90159600  1
  Te  Te17  1  0.78626900  0.53349600  0.90159600  1
  Te  Te18  1  0.71373100  0.46650400  0.40159600  1
  Te  Te19  1  0.21373100  0.03349600  0.40159600  1
  Te  Te20  1  0.71373100  0.03349600  0.09840400  1
  Te  Te21  1  0.28626900  0.53349600  0.59840400  1
  Te  Te22  1  0.21373100  0.46650400  0.09840400  1
  Te  Te23  1  0.78626900  0.96650400  0.59840400  1
  Cl  Cl24  1  0.34672500  0.08543900  0.21135900  1
  Cl  Cl25  1  0.42847000  0.21271600  0.62939400  1
  Cl  Cl26  1  0.15327500  0.91456100  0.71135900  1
  Cl  Cl27  1  0.42847000  0.28728400  0.87060600  1
  Cl  Cl28  1  0.84672500  0.41456100  0.21135900  1
  Cl  Cl29  1  0.65327500  0.58543900  0.71135900  1
  Cl  Cl30  1  0.34672500  0.41456100  0.28864100  1
  Cl  Cl31  1  0.07153000  0.78728400  0.12939400  1
  Cl  Cl32  1  0.65327500  0.91456100  0.78864100  1
  Cl  Cl33  1  0.15327500  0.58543900  0.78864100  1
  Cl  Cl34  1  0.57153000  0.78728400  0.37060600  1
  Cl  Cl35  1  0.07153000  0.71271600  0.37060600  1
  Cl  Cl36  1  0.84672500  0.08543900  0.28864100  1
  Cl  Cl37  1  0.92847000  0.28728400  0.62939400  1
  Cl  Cl38  1  0.92847000  0.21271600  0.87060600  1
  Cl  Cl39  1  0.57153000  0.71271600  0.12939400  1
  O  O40  1  0.19741400  0.54954600  0.99524600  1
  O  O41  1  0.92826900  0.41726900  0.41822600  1
  O  O42  1  0.14712200  0.31761100  0.06003400  1
  O  O43  1  0.30258600  0.45045400  0.49524600  1
  O  O44  1  0.85287800  0.68238900  0.93996600  1
  O  O45  1  0.85287800  0.81761100  0.56003400  1
  O  O46  1  0.57173100  0.58273100  0.91822600  1
  O  O47  1  0.80258600  0.04954600  0.49524600  1
  O  O48  1  0.14712200  0.18238900  0.43996600  1
  O  O49  1  0.35287800  0.81761100  0.93996600  1
  O  O50  1  0.07173100  0.91726900  0.91822600  1
  O  O51  1  0.92826900  0.08273100  0.08177400  1
  O  O52  1  0.69741400  0.54954600  0.50475400  1
  O  O53  1  0.35287800  0.68238900  0.56003400  1
  O  O54  1  0.07173100  0.58273100  0.58177400  1
  O  O55  1  0.30258600  0.04954600  0.00475400  1
  O  O56  1  0.64712200  0.31761100  0.43996600  1
  O  O57  1  0.64712200  0.18238900  0.06003400  1
  O  O58  1  0.80258600  0.45045400  0.00475400  1
  O  O59  1  0.69741400  0.95045400  0.99524600  1
  O  O60  1  0.19741400  0.95045400  0.50475400  1
  O  O61  1  0.42826900  0.08273100  0.41822600  1
  O  O62  1  0.57173100  0.91726900  0.58177400  1
  O  O63  1  0.42826900  0.41726900  0.08177400  1
