# generated using pymatgen
data_CdAgO2
_symmetry_space_group_name_H-M   'P 1'
_cell_length_a   6.82991200
_cell_length_b   9.31278200
_cell_length_c   3.44813450
_cell_angle_alpha   90.00000000
_cell_angle_beta   92.22151224
_cell_angle_gamma   90.00000000
_symmetry_Int_Tables_number   1
_chemical_formula_structural   CdAgO2
_chemical_formula_sum   'Cd4 Ag4 O8'
_cell_volume   219.15542167
_cell_formula_units_Z   4
loop_
 _symmetry_equiv_pos_site_id
 _symmetry_equiv_pos_as_xyz
  1  'x, y, z'
loop_
 _atom_site_type_symbol
 _atom_site_label
 _atom_site_symmetry_multiplicity
 _atom_site_fract_x
 _atom_site_fract_y
 _atom_site_fract_z
 _atom_site_occupancy
  Cd  Cd0  1  0.75000000  0.75000000  0.50000000  1
  Cd  Cd1  1  0.75000000  0.25000000  0.50000000  1
  Cd  Cd2  1  0.25000000  0.25000000  0.50000000  1
  Cd  Cd3  1  0.25000000  0.75000000  0.50000000  1
  Ag  Ag4  1  0.00000000  0.00000000  0.00000000  1
  Ag  Ag5  1  0.50000000  0.00000000  0.00000000  1
  Ag  Ag6  1  0.50000000  0.50000000  0.00000000  1
  Ag  Ag7  1  0.00000000  0.50000000  0.00000000  1
  O  O8  1  0.50000000  0.27168400  0.00000000  1
  O  O9  1  0.74773700  0.00000000  0.63014700  1
  O  O10  1  0.50000000  0.72831600  0.00000000  1
  O  O11  1  0.25226300  0.00000000  0.36985300  1
  O  O12  1  0.00000000  0.77168400  0.00000000  1
  O  O13  1  0.24773700  0.50000000  0.63014700  1
  O  O14  1  0.00000000  0.22831600  0.00000000  1
  O  O15  1  0.75226300  0.50000000  0.36985300  1
