# generated using pymatgen
data_Ba3NaRuO6
_symmetry_space_group_name_H-M   'P 1'
_cell_length_a   10.25635436
_cell_length_b   10.25635436
_cell_length_c   12.06746398
_cell_angle_alpha   90.00000000
_cell_angle_beta   90.00000000
_cell_angle_gamma   120.00000000
_symmetry_Int_Tables_number   1
_chemical_formula_structural   Ba3NaRuO6
_chemical_formula_sum   'Ba18 Na6 Ru6 O36'
_cell_volume   1099.34164005
_cell_formula_units_Z   6
loop_
 _symmetry_equiv_pos_site_id
 _symmetry_equiv_pos_as_xyz
  1  'x, y, z'
loop_
 _atom_site_type_symbol
 _atom_site_label
 _atom_site_symmetry_multiplicity
 _atom_site_fract_x
 _atom_site_fract_y
 _atom_site_fract_z
 _atom_site_occupancy
  Ba  Ba0  1  0.33333333  0.30973667  0.41666667  1
  Ba  Ba1  1  0.69026333  0.02359667  0.41666667  1
  Ba  Ba2  1  0.66666667  0.69026333  0.58333333  1
  Ba  Ba3  1  0.30973667  0.97640333  0.58333333  1
  Ba  Ba4  1  0.97640333  0.66666667  0.41666667  1
  Ba  Ba5  1  0.02359667  0.33333333  0.58333333  1
  Ba  Ba6  1  0.00000000  0.64307000  0.75000000  1
  Ba  Ba7  1  0.35693000  0.35693000  0.75000000  1
  Ba  Ba8  1  0.33333333  0.02359667  0.91666667  1
  Ba  Ba9  1  0.97640333  0.30973667  0.91666667  1
  Ba  Ba10  1  0.64307000  0.00000000  0.75000000  1
  Ba  Ba11  1  0.69026333  0.66666667  0.91666667  1
  Ba  Ba12  1  0.66666667  0.97640333  0.08333333  1
  Ba  Ba13  1  0.02359667  0.69026333  0.08333333  1
  Ba  Ba14  1  0.00000000  0.35693000  0.25000000  1
  Ba  Ba15  1  0.64307000  0.64307000  0.25000000  1
  Ba  Ba16  1  0.30973667  0.33333333  0.08333333  1
  Ba  Ba17  1  0.35693000  0.00000000  0.25000000  1
  Na  Na18  1  0.00000000  0.00000000  0.25000000  1
  Na  Na19  1  0.00000000  0.00000000  0.75000000  1
  Na  Na20  1  0.66666667  0.33333333  0.58333333  1
  Na  Na21  1  0.66666667  0.33333333  0.08333333  1
  Na  Na22  1  0.33333333  0.66666667  0.91666667  1
  Na  Na23  1  0.33333333  0.66666667  0.41666667  1
  Ru  Ru24  1  0.00000000  0.00000000  0.00000000  1
  Ru  Ru25  1  0.00000000  0.00000000  0.50000000  1
  Ru  Ru26  1  0.66666667  0.33333333  0.33333333  1
  Ru  Ru27  1  0.66666667  0.33333333  0.83333333  1
  Ru  Ru28  1  0.33333333  0.66666667  0.66666667  1
  Ru  Ru29  1  0.33333333  0.66666667  0.16666667  1
  O  O30  1  0.16731100  0.14969400  0.59822900  1
  O  O31  1  0.85030600  0.01761700  0.59822900  1
  O  O32  1  0.98238300  0.83268900  0.59822900  1
  O  O33  1  0.35095033  0.51697267  0.56843767  1
  O  O34  1  0.48302733  0.83397767  0.56843767  1
  O  O35  1  0.16602233  0.64904967  0.56843767  1
  O  O36  1  0.83268900  0.85030600  0.40177100  1
  O  O37  1  0.14969400  0.98238300  0.40177100  1
  O  O38  1  0.01761700  0.16731100  0.40177100  1
  O  O39  1  0.64904967  0.48302733  0.43156233  1
  O  O40  1  0.83397767  0.35095033  0.43156233  1
  O  O41  1  0.51697267  0.16602233  0.43156233  1
  O  O42  1  0.83397767  0.48302733  0.93156233  1
  O  O43  1  0.51697267  0.35095033  0.93156233  1
  O  O44  1  0.64904967  0.16602233  0.93156233  1
  O  O45  1  0.01761700  0.85030600  0.90177100  1
  O  O46  1  0.14969400  0.16731100  0.90177100  1
  O  O47  1  0.83268900  0.98238300  0.90177100  1
  O  O48  1  0.49935567  0.18363933  0.73510433  1
  O  O49  1  0.81636067  0.31571633  0.73510433  1
  O  O50  1  0.68428367  0.50064433  0.73510433  1
  O  O51  1  0.31571633  0.81636067  0.76489567  1
  O  O52  1  0.50064433  0.68428367  0.76489567  1
  O  O53  1  0.18363933  0.49935567  0.76489567  1
  O  O54  1  0.50064433  0.81636067  0.26489567  1
  O  O55  1  0.18363933  0.68428367  0.26489567  1
  O  O56  1  0.31571633  0.49935567  0.26489567  1
  O  O57  1  0.68428367  0.18363933  0.23510433  1
  O  O58  1  0.81636067  0.50064433  0.23510433  1
  O  O59  1  0.49935567  0.31571633  0.23510433  1
  O  O60  1  0.16602233  0.51697267  0.06843767  1
  O  O61  1  0.48302733  0.64904967  0.06843767  1
  O  O62  1  0.35095033  0.83397767  0.06843767  1
  O  O63  1  0.98238300  0.14969400  0.09822900  1
  O  O64  1  0.16731100  0.01761700  0.09822900  1
  O  O65  1  0.85030600  0.83268900  0.09822900  1
