# generated using pymatgen
data_LiAlH4
_symmetry_space_group_name_H-M   'P 1'
_cell_length_a   4.57575600
_cell_length_b   4.57575600
_cell_length_c   10.21812000
_cell_angle_alpha   90.00000000
_cell_angle_beta   90.00000000
_cell_angle_gamma   90.00000000
_symmetry_Int_Tables_number   1
_chemical_formula_structural   LiAlH4
_chemical_formula_sum   'Li4 Al4 H16'
_cell_volume   213.94232659
_cell_formula_units_Z   4
loop_
 _symmetry_equiv_pos_site_id
 _symmetry_equiv_pos_as_xyz
  1  'x, y, z'
loop_
 _atom_site_type_symbol
 _atom_site_label
 _atom_site_symmetry_multiplicity
 _atom_site_fract_x
 _atom_site_fract_y
 _atom_site_fract_z
 _atom_site_occupancy
  Li  Li0  1  0.50000000  0.00000000  0.25000000  1
  Li  Li1  1  0.50000000  0.50000000  0.00000000  1
  Li  Li2  1  0.00000000  0.50000000  0.75000000  1
  Li  Li3  1  0.00000000  0.00000000  0.50000000  1
  Al  Al4  1  0.00000000  0.50000000  0.25000000  1
  Al  Al5  1  0.00000000  0.00000000  0.00000000  1
  Al  Al6  1  0.50000000  0.00000000  0.75000000  1
  Al  Al7  1  0.50000000  0.50000000  0.50000000  1
  H  H8  1  0.17361850  0.24641350  0.33402850  1
  H  H9  1  0.82638150  0.75358650  0.33402850  1
  H  H10  1  0.74641350  0.82638150  0.08402850  1
  H  H11  1  0.25358650  0.17361850  0.08402850  1
  H  H12  1  0.32638150  0.75358650  0.41597150  1
  H  H13  1  0.67361850  0.24641350  0.41597150  1
  H  H14  1  0.25358650  0.67361850  0.16597150  1
  H  H15  1  0.74641350  0.32638150  0.16597150  1
  H  H16  1  0.67361850  0.74641350  0.83402850  1
  H  H17  1  0.32638150  0.25358650  0.83402850  1
  H  H18  1  0.24641350  0.32638150  0.58402850  1
  H  H19  1  0.75358650  0.67361850  0.58402850  1
  H  H20  1  0.82638150  0.25358650  0.91597150  1
  H  H21  1  0.17361850  0.74641350  0.91597150  1
  H  H22  1  0.75358650  0.17361850  0.66597150  1
  H  H23  1  0.24641350  0.82638150  0.66597150  1
