# generated using pymatgen
data_SiC
_symmetry_space_group_name_H-M   'P 1'
_cell_length_a   3.09547747
_cell_length_b   3.09547747
_cell_length_c   53.12960278
_cell_angle_alpha   90.00000000
_cell_angle_beta   90.00000000
_cell_angle_gamma   120.00000000
_symmetry_Int_Tables_number   1
_chemical_formula_structural   SiC
_chemical_formula_sum   'Si21 C21'
_cell_volume   440.88212805
_cell_formula_units_Z   21
loop_
 _symmetry_equiv_pos_site_id
 _symmetry_equiv_pos_as_xyz
  1  'x, y, z'
loop_
 _atom_site_type_symbol
 _atom_site_label
 _atom_site_symmetry_multiplicity
 _atom_site_fract_x
 _atom_site_fract_y
 _atom_site_fract_z
 _atom_site_occupancy
  Si  Si0  1  0.66666667  0.33333333  0.14285933  1
  Si  Si1  1  0.66666667  0.33333333  0.04756033  1
  Si  Si2  1  0.33333333  0.66666667  0.23809067  1
  Si  Si3  1  0.33333333  0.66666667  0.09521567  1
  Si  Si4  1  0.00000000  0.00000000  0.28573400  1
  Si  Si5  1  0.00000000  0.00000000  0.19043500  1
  Si  Si6  1  0.66666667  0.33333333  0.33331533  1
  Si  Si7  1  0.33333333  0.66666667  0.47619267  1
  Si  Si8  1  0.33333333  0.66666667  0.38089367  1
  Si  Si9  1  0.00000000  0.00000000  0.57142400  1
  Si  Si10  1  0.00000000  0.00000000  0.42854900  1
  Si  Si11  1  0.66666667  0.33333333  0.61906733  1
  Si  Si12  1  0.66666667  0.33333333  0.52376833  1
  Si  Si13  1  0.33333333  0.66666667  0.66664867  1
  Si  Si14  1  0.00000000  0.00000000  0.80952600  1
  Si  Si15  1  0.00000000  0.00000000  0.71422700  1
  Si  Si16  1  0.66666667  0.33333333  0.90475733  1
  Si  Si17  1  0.66666667  0.33333333  0.76188233  1
  Si  Si18  1  0.33333333  0.66666667  0.95240067  1
  Si  Si19  1  0.33333333  0.66666667  0.85710167  1
  Si  Si20  1  0.00000000  0.00000000  0.99998200  1
  C  C21  1  0.66666667  0.33333333  0.17857833  1
  C  C22  1  0.66666667  0.33333333  0.08327733  1
  C  C23  1  0.33333333  0.66666667  0.27391167  1
  C  C24  1  0.33333333  0.66666667  0.13103767  1
  C  C25  1  0.00000000  0.00000000  0.32145200  1
  C  C26  1  0.00000000  0.00000000  0.22615100  1
  C  C27  1  0.00000000  0.00000000  0.03571200  1
  C  C28  1  0.33333333  0.66666667  0.51191167  1
  C  C29  1  0.33333333  0.66666667  0.41661067  1
  C  C30  1  0.00000000  0.00000000  0.60724500  1
  C  C31  1  0.00000000  0.00000000  0.46437100  1
  C  C32  1  0.66666667  0.33333333  0.65478533  1
  C  C33  1  0.66666667  0.33333333  0.55948433  1
  C  C34  1  0.66666667  0.33333333  0.36904533  1
  C  C35  1  0.00000000  0.00000000  0.84524500  1
  C  C36  1  0.00000000  0.00000000  0.74994400  1
  C  C37  1  0.66666667  0.33333333  0.94057833  1
  C  C38  1  0.66666667  0.33333333  0.79770433  1
  C  C39  1  0.33333333  0.66666667  0.98811867  1
  C  C40  1  0.33333333  0.66666667  0.89281767  1
  C  C41  1  0.33333333  0.66666667  0.70237867  1
