# generated using pymatgen
data_CaC2
_symmetry_space_group_name_H-M   'P 1'
_cell_length_a   7.16797000
_cell_length_b   3.84256200
_cell_length_c   7.46845574
_cell_angle_alpha   90.00000000
_cell_angle_beta   106.87385147
_cell_angle_gamma   90.00000000
_symmetry_Int_Tables_number   1
_chemical_formula_structural   CaC2
_chemical_formula_sum   'Ca4 C8'
_cell_volume   196.84998033
_cell_formula_units_Z   4
loop_
 _symmetry_equiv_pos_site_id
 _symmetry_equiv_pos_as_xyz
  1  'x, y, z'
loop_
 _atom_site_type_symbol
 _atom_site_label
 _atom_site_symmetry_multiplicity
 _atom_site_fract_x
 _atom_site_fract_y
 _atom_site_fract_z
 _atom_site_occupancy
  Ca  Ca0  1  0.70432400  0.50000000  0.24710300  1
  Ca  Ca1  1  0.79567600  0.00000000  0.75289700  1
  Ca  Ca2  1  0.20432400  0.00000000  0.24710300  1
  Ca  Ca3  1  0.29567600  0.50000000  0.75289700  1
  C  C4  1  0.92094100  0.00000000  0.43518400  1
  C  C5  1  0.57905900  0.50000000  0.56481600  1
  C  C6  1  0.54660900  0.00000000  0.94025300  1
  C  C7  1  0.95339100  0.50000000  0.05974700  1
  C  C8  1  0.42094100  0.50000000  0.43518400  1
  C  C9  1  0.07905900  0.00000000  0.56481600  1
  C  C10  1  0.04660900  0.50000000  0.94025300  1
  C  C11  1  0.45339100  0.00000000  0.05974700  1
