# generated using pymatgen
data_EuMgF4
_symmetry_space_group_name_H-M   'P 1'
_cell_length_a   4.08495000
_cell_length_b   14.95861200
_cell_length_c   5.60793300
_cell_angle_alpha   90.00000000
_cell_angle_beta   90.00000000
_cell_angle_gamma   90.00000000
_symmetry_Int_Tables_number   1
_chemical_formula_structural   EuMgF4
_chemical_formula_sum   'Eu4 Mg4 F16'
_cell_volume   342.67376711
_cell_formula_units_Z   4
loop_
 _symmetry_equiv_pos_site_id
 _symmetry_equiv_pos_as_xyz
  1  'x, y, z'
loop_
 _atom_site_type_symbol
 _atom_site_label
 _atom_site_symmetry_multiplicity
 _atom_site_fract_x
 _atom_site_fract_y
 _atom_site_fract_z
 _atom_site_occupancy
  Eu  Eu0  1  0.50000000  0.83299200  0.75000000  1
  Eu  Eu1  1  0.00000000  0.66700800  0.25000000  1
  Eu  Eu2  1  0.00000000  0.33299200  0.75000000  1
  Eu  Eu3  1  0.50000000  0.16700800  0.25000000  1
  Mg  Mg4  1  0.00000000  0.91138500  0.25000000  1
  Mg  Mg5  1  0.50000000  0.58861500  0.75000000  1
  Mg  Mg6  1  0.50000000  0.41138500  0.25000000  1
  Mg  Mg7  1  0.00000000  0.08861500  0.75000000  1
  F  F8  1  0.00000000  0.00000000  0.00000000  1
  F  F9  1  0.00000000  0.00000000  0.50000000  1
  F  F10  1  0.00000000  0.81300500  0.49663500  1
  F  F11  1  0.50000000  0.68699500  0.50336500  1
  F  F12  1  0.00000000  0.60075600  0.75000000  1
  F  F13  1  0.50000000  0.89924400  0.25000000  1
  F  F14  1  0.00000000  0.81300500  0.00336500  1
  F  F15  1  0.50000000  0.68699500  0.99663500  1
  F  F16  1  0.50000000  0.50000000  0.00000000  1
  F  F17  1  0.50000000  0.50000000  0.50000000  1
  F  F18  1  0.50000000  0.31300500  0.49663500  1
  F  F19  1  0.00000000  0.18699500  0.50336500  1
  F  F20  1  0.50000000  0.10075600  0.75000000  1
  F  F21  1  0.00000000  0.39924400  0.25000000  1
  F  F22  1  0.50000000  0.31300500  0.00336500  1
  F  F23  1  0.00000000  0.18699500  0.99663500  1
