# generated using pymatgen
data_Rb3BAs2
_symmetry_space_group_name_H-M   'P 1'
_cell_length_a   9.97587200
_cell_length_b   9.57781400
_cell_length_c   9.65514126
_cell_angle_alpha   90.00000000
_cell_angle_beta   110.53073796
_cell_angle_gamma   90.00000000
_symmetry_Int_Tables_number   1
_chemical_formula_structural   Rb3BAs2
_chemical_formula_sum   'Rb12 B4 As8'
_cell_volume   863.92559767
_cell_formula_units_Z   4
loop_
 _symmetry_equiv_pos_site_id
 _symmetry_equiv_pos_as_xyz
  1  'x, y, z'
loop_
 _atom_site_type_symbol
 _atom_site_label
 _atom_site_symmetry_multiplicity
 _atom_site_fract_x
 _atom_site_fract_y
 _atom_site_fract_z
 _atom_site_occupancy
  Rb  Rb0  1  0.00000000  0.85129500  0.25000000  1
  Rb  Rb1  1  0.00000000  0.14870500  0.75000000  1
  Rb  Rb2  1  0.79695500  0.44660200  0.01907300  1
  Rb  Rb3  1  0.20304500  0.44660200  0.48092700  1
  Rb  Rb4  1  0.20304500  0.55339800  0.98092700  1
  Rb  Rb5  1  0.79695500  0.55339800  0.51907300  1
  Rb  Rb6  1  0.50000000  0.35129500  0.25000000  1
  Rb  Rb7  1  0.50000000  0.64870500  0.75000000  1
  Rb  Rb8  1  0.29695500  0.94660200  0.01907300  1
  Rb  Rb9  1  0.70304500  0.94660200  0.48092700  1
  Rb  Rb10  1  0.70304500  0.05339800  0.98092700  1
  Rb  Rb11  1  0.29695500  0.05339800  0.51907300  1
  B  B12  1  0.00000000  0.78313900  0.75000000  1
  B  B13  1  0.00000000  0.21686100  0.25000000  1
  B  B14  1  0.50000000  0.28313900  0.75000000  1
  B  B15  1  0.50000000  0.71686100  0.25000000  1
  As  As16  1  0.12756850  0.77879850  0.64406400  1
  As  As17  1  0.87243150  0.77879850  0.85593600  1
  As  As18  1  0.12756850  0.22120150  0.14406400  1
  As  As19  1  0.87243150  0.22120150  0.35593600  1
  As  As20  1  0.62756850  0.27879850  0.64406400  1
  As  As21  1  0.37243150  0.27879850  0.85593600  1
  As  As22  1  0.62756850  0.72120150  0.14406400  1
  As  As23  1  0.37243150  0.72120150  0.35593600  1
