# generated using pymatgen
data_V2Se2O11
_symmetry_space_group_name_H-M   'P 1'
_cell_length_a   15.70267000
_cell_length_b   5.69046400
_cell_length_c   9.75653507
_cell_angle_alpha   90.00000000
_cell_angle_beta   112.69391562
_cell_angle_gamma   90.00000000
_symmetry_Int_Tables_number   1
_chemical_formula_structural   V2Se2O11
_chemical_formula_sum   'V8 Se8 O44'
_cell_volume   804.30429774
_cell_formula_units_Z   4
loop_
 _symmetry_equiv_pos_site_id
 _symmetry_equiv_pos_as_xyz
  1  'x, y, z'
loop_
 _atom_site_type_symbol
 _atom_site_label
 _atom_site_symmetry_multiplicity
 _atom_site_fract_x
 _atom_site_fract_y
 _atom_site_fract_z
 _atom_site_occupancy
  V  V0  1  0.37834250  0.42356150  0.71048000  1
  V  V1  1  0.12165750  0.92356150  0.78952000  1
  V  V2  1  0.12165750  0.07643850  0.28952000  1
  V  V3  1  0.37834250  0.57643850  0.21048000  1
  V  V4  1  0.87834250  0.92356150  0.71048000  1
  V  V5  1  0.62165750  0.42356150  0.78952000  1
  V  V6  1  0.62165750  0.57643850  0.28952000  1
  V  V7  1  0.87834250  0.07643850  0.21048000  1
  Se  Se8  1  0.35363400  0.88224900  0.90628500  1
  Se  Se9  1  0.14636600  0.38224900  0.59371500  1
  Se  Se10  1  0.14636600  0.61775100  0.09371500  1
  Se  Se11  1  0.35363400  0.11775100  0.40628500  1
  Se  Se12  1  0.85363400  0.38224900  0.90628500  1
  Se  Se13  1  0.64636600  0.88224900  0.59371500  1
  Se  Se14  1  0.64636600  0.11775100  0.09371500  1
  Se  Se15  1  0.85363400  0.61775100  0.40628500  1
  O  O16  1  0.00000000  0.09642500  0.25000000  1
  O  O17  1  0.00000000  0.90357500  0.75000000  1
  O  O18  1  0.34193400  0.61204300  0.57864400  1
  O  O19  1  0.15806600  0.11204300  0.92135600  1
  O  O20  1  0.15806600  0.88795700  0.42135600  1
  O  O21  1  0.34193400  0.38795700  0.07864400  1
  O  O22  1  0.35350250  0.86772750  0.07959900  1
  O  O23  1  0.14649750  0.36772750  0.42040100  1
  O  O24  1  0.14649750  0.63227250  0.92040100  1
  O  O25  1  0.35350250  0.13227250  0.57959900  1
  O  O26  1  0.40775050  0.63575050  0.88387000  1
  O  O27  1  0.09224950  0.13575050  0.61613000  1
  O  O28  1  0.09224950  0.86424950  0.11613000  1
  O  O29  1  0.40775050  0.36424950  0.38387000  1
  O  O30  1  0.24485900  0.86568200  0.77641300  1
  O  O31  1  0.25514100  0.36568200  0.72358700  1
  O  O32  1  0.25514100  0.63431800  0.22358700  1
  O  O33  1  0.24485900  0.13431800  0.27641300  1
  O  O34  1  0.40911850  0.11799750  0.88956100  1
  O  O35  1  0.09088150  0.61799750  0.61043900  1
  O  O36  1  0.09088150  0.38200250  0.11043900  1
  O  O37  1  0.40911850  0.88200250  0.38956100  1
  O  O38  1  0.50000000  0.59642500  0.25000000  1
  O  O39  1  0.50000000  0.40357500  0.75000000  1
  O  O40  1  0.84193400  0.11204300  0.57864400  1
  O  O41  1  0.65806600  0.61204300  0.92135600  1
  O  O42  1  0.65806600  0.38795700  0.42135600  1
  O  O43  1  0.84193400  0.88795700  0.07864400  1
  O  O44  1  0.85350250  0.36772750  0.07959900  1
  O  O45  1  0.64649750  0.86772750  0.42040100  1
  O  O46  1  0.64649750  0.13227250  0.92040100  1
  O  O47  1  0.85350250  0.63227250  0.57959900  1
  O  O48  1  0.90775050  0.13575050  0.88387000  1
  O  O49  1  0.59224950  0.63575050  0.61613000  1
  O  O50  1  0.59224950  0.36424950  0.11613000  1
  O  O51  1  0.90775050  0.86424950  0.38387000  1
  O  O52  1  0.74485900  0.36568200  0.77641300  1
  O  O53  1  0.75514100  0.86568200  0.72358700  1
  O  O54  1  0.75514100  0.13431800  0.22358700  1
  O  O55  1  0.74485900  0.63431800  0.27641300  1
  O  O56  1  0.90911850  0.61799750  0.88956100  1
  O  O57  1  0.59088150  0.11799750  0.61043900  1
  O  O58  1  0.59088150  0.88200250  0.11043900  1
  O  O59  1  0.90911850  0.38200250  0.38956100  1
