# generated using pymatgen
data_RbPbBr3
_symmetry_space_group_name_H-M   'P 1'
_cell_length_a   4.51600800
_cell_length_b   15.06818400
_cell_length_c   11.34292300
_cell_angle_alpha   90.00000000
_cell_angle_beta   90.00000000
_cell_angle_gamma   90.00000000
_symmetry_Int_Tables_number   1
_chemical_formula_structural   RbPbBr3
_chemical_formula_sum   'Rb4 Pb4 Br12'
_cell_volume   771.86367223
_cell_formula_units_Z   4
loop_
 _symmetry_equiv_pos_site_id
 _symmetry_equiv_pos_as_xyz
  1  'x, y, z'
loop_
 _atom_site_type_symbol
 _atom_site_label
 _atom_site_symmetry_multiplicity
 _atom_site_fract_x
 _atom_site_fract_y
 _atom_site_fract_z
 _atom_site_occupancy
  Rb  Rb0  1  0.00000000  0.25434100  0.25000000  1
  Rb  Rb1  1  0.50000000  0.24565900  0.75000000  1
  Rb  Rb2  1  0.50000000  0.75434100  0.25000000  1
  Rb  Rb3  1  0.00000000  0.74565900  0.75000000  1
  Pb  Pb4  1  0.00000000  0.00000000  0.00000000  1
  Pb  Pb5  1  0.00000000  0.00000000  0.50000000  1
  Pb  Pb6  1  0.50000000  0.50000000  0.00000000  1
  Pb  Pb7  1  0.50000000  0.50000000  0.50000000  1
  Br  Br8  1  0.00000000  0.36679400  0.94475900  1
  Br  Br9  1  0.50000000  0.13320600  0.44475900  1
  Br  Br10  1  0.00000000  0.36679400  0.55524100  1
  Br  Br11  1  0.50000000  0.13320600  0.05524100  1
  Br  Br12  1  0.50000000  0.42829900  0.25000000  1
  Br  Br13  1  0.00000000  0.07170100  0.75000000  1
  Br  Br14  1  0.50000000  0.86679400  0.94475900  1
  Br  Br15  1  0.00000000  0.63320600  0.44475900  1
  Br  Br16  1  0.50000000  0.86679400  0.55524100  1
  Br  Br17  1  0.00000000  0.63320600  0.05524100  1
  Br  Br18  1  0.00000000  0.92829900  0.25000000  1
  Br  Br19  1  0.50000000  0.57170100  0.75000000  1
