# generated using pymatgen
data_LiFeSO4F
_symmetry_space_group_name_H-M   'P 1'
_cell_length_a   5.25236157
_cell_length_b   5.59647139
_cell_length_c   7.40295968
_cell_angle_alpha   107.24829731
_cell_angle_beta   107.29243151
_cell_angle_gamma   97.06602877
_symmetry_Int_Tables_number   1
_chemical_formula_structural   LiFeSO4F
_chemical_formula_sum   'Li2 Fe2 S2 O8 F2'
_cell_volume   193.03491856
_cell_formula_units_Z   2
loop_
 _symmetry_equiv_pos_site_id
 _symmetry_equiv_pos_as_xyz
  1  'x, y, z'
loop_
 _atom_site_type_symbol
 _atom_site_label
 _atom_site_symmetry_multiplicity
 _atom_site_fract_x
 _atom_site_fract_y
 _atom_site_fract_z
 _atom_site_occupancy
  Li  Li0  1  0.26371500  0.62117000  0.78646200  1
  Li  Li1  1  0.73628500  0.37883000  0.21353800  1
  Fe  Fe2  1  0.00000000  0.00000000  0.50000000  1
  Fe  Fe3  1  0.00000000  0.00000000  0.00000000  1
  S  S4  1  0.32505750  0.63233300  0.24455200  1
  S  S5  1  0.67494250  0.36766700  0.75544800  1
  O  O6  1  0.59940550  0.75290300  0.40144550  1
  O  O7  1  0.40059450  0.24709700  0.59855450  1
  O  O8  1  0.10598950  0.65088000  0.33604450  1
  O  O9  1  0.89401050  0.34912000  0.66395550  1
  O  O10  1  0.32471050  0.35556500  0.14868350  1
  O  O11  1  0.67528950  0.64443500  0.85131650  1
  O  O12  1  0.27202350  0.75514900  0.08759100  1
  O  O13  1  0.72797650  0.24485100  0.91240900  1
  F  F14  1  0.11723450  0.90824900  0.75450450  1
  F  F15  1  0.88276550  0.09175100  0.24549550  1
