# generated using pymatgen
data_Na8TiAs4
_symmetry_space_group_name_H-M   'P 1'
_cell_length_a   13.85065800
_cell_length_b   13.85065800
_cell_length_c   13.85065800
_cell_angle_alpha   90.00000000
_cell_angle_beta   90.00000000
_cell_angle_gamma   90.00000000
_symmetry_Int_Tables_number   1
_chemical_formula_structural   Na8TiAs4
_chemical_formula_sum   'Na64 Ti8 As32'
_cell_volume   2657.12030060
_cell_formula_units_Z   8
loop_
 _symmetry_equiv_pos_site_id
 _symmetry_equiv_pos_as_xyz
  1  'x, y, z'
loop_
 _atom_site_type_symbol
 _atom_site_label
 _atom_site_symmetry_multiplicity
 _atom_site_fract_x
 _atom_site_fract_y
 _atom_site_fract_z
 _atom_site_occupancy
  Na  Na0  1  0.87500000  0.87500000  0.12500000  1
  Na  Na1  1  0.37500000  0.12500000  0.37500000  1
  Na  Na2  1  0.62500000  0.87500000  0.37500000  1
  Na  Na3  1  0.12500000  0.12500000  0.12500000  1
  Na  Na4  1  0.47066900  0.75000000  0.25000000  1
  Na  Na5  1  0.22066900  0.00000000  0.50000000  1
  Na  Na6  1  0.25000000  0.97066900  0.25000000  1
  Na  Na7  1  0.25000000  0.75000000  0.47066900  1
  Na  Na8  1  0.25000000  0.75000000  0.02933100  1
  Na  Na9  1  0.25000000  0.52933100  0.25000000  1
  Na  Na10  1  0.02933100  0.75000000  0.25000000  1
  Na  Na11  1  0.50000000  0.27933100  0.50000000  1
  Na  Na12  1  0.50000000  0.72066900  0.50000000  1
  Na  Na13  1  0.50000000  0.00000000  0.22066900  1
  Na  Na14  1  0.00000000  0.00000000  0.27933100  1
  Na  Na15  1  0.77933100  0.00000000  0.50000000  1
  Na  Na16  1  0.87500000  0.37500000  0.62500000  1
  Na  Na17  1  0.37500000  0.62500000  0.87500000  1
  Na  Na18  1  0.62500000  0.37500000  0.87500000  1
  Na  Na19  1  0.12500000  0.62500000  0.62500000  1
  Na  Na20  1  0.47066900  0.25000000  0.75000000  1
  Na  Na21  1  0.22066900  0.50000000  0.00000000  1
  Na  Na22  1  0.25000000  0.47066900  0.75000000  1
  Na  Na23  1  0.25000000  0.25000000  0.97066900  1
  Na  Na24  1  0.25000000  0.25000000  0.52933100  1
  Na  Na25  1  0.25000000  0.02933100  0.75000000  1
  Na  Na26  1  0.02933100  0.25000000  0.75000000  1
  Na  Na27  1  0.50000000  0.77933100  0.00000000  1
  Na  Na28  1  0.50000000  0.22066900  0.00000000  1
  Na  Na29  1  0.50000000  0.50000000  0.72066900  1
  Na  Na30  1  0.00000000  0.50000000  0.77933100  1
  Na  Na31  1  0.77933100  0.50000000  0.00000000  1
  Na  Na32  1  0.37500000  0.87500000  0.62500000  1
  Na  Na33  1  0.87500000  0.12500000  0.87500000  1
  Na  Na34  1  0.12500000  0.87500000  0.87500000  1
  Na  Na35  1  0.62500000  0.12500000  0.62500000  1
  Na  Na36  1  0.97066900  0.75000000  0.75000000  1
  Na  Na37  1  0.72066900  0.00000000  0.00000000  1
  Na  Na38  1  0.75000000  0.97066900  0.75000000  1
  Na  Na39  1  0.75000000  0.75000000  0.97066900  1
  Na  Na40  1  0.75000000  0.75000000  0.52933100  1
  Na  Na41  1  0.75000000  0.52933100  0.75000000  1
  Na  Na42  1  0.52933100  0.75000000  0.75000000  1
  Na  Na43  1  0.00000000  0.27933100  0.00000000  1
  Na  Na44  1  0.00000000  0.72066900  0.00000000  1
  Na  Na45  1  0.00000000  0.00000000  0.72066900  1
  Na  Na46  1  0.50000000  0.00000000  0.77933100  1
  Na  Na47  1  0.27933100  0.00000000  0.00000000  1
  Na  Na48  1  0.37500000  0.37500000  0.12500000  1
  Na  Na49  1  0.87500000  0.62500000  0.37500000  1
  Na  Na50  1  0.12500000  0.37500000  0.37500000  1
  Na  Na51  1  0.62500000  0.62500000  0.12500000  1
  Na  Na52  1  0.97066900  0.25000000  0.25000000  1
  Na  Na53  1  0.72066900  0.50000000  0.50000000  1
  Na  Na54  1  0.75000000  0.47066900  0.25000000  1
  Na  Na55  1  0.75000000  0.25000000  0.47066900  1
  Na  Na56  1  0.75000000  0.25000000  0.02933100  1
  Na  Na57  1  0.75000000  0.02933100  0.25000000  1
  Na  Na58  1  0.52933100  0.25000000  0.25000000  1
  Na  Na59  1  0.00000000  0.77933100  0.50000000  1
  Na  Na60  1  0.00000000  0.22066900  0.50000000  1
  Na  Na61  1  0.00000000  0.50000000  0.22066900  1
  Na  Na62  1  0.50000000  0.50000000  0.27933100  1
  Na  Na63  1  0.27933100  0.50000000  0.50000000  1
  Ti  Ti64  1  0.25000000  0.25000000  0.25000000  1
  Ti  Ti65  1  0.50000000  0.00000000  0.50000000  1
  Ti  Ti66  1  0.25000000  0.75000000  0.75000000  1
  Ti  Ti67  1  0.50000000  0.50000000  0.00000000  1
  Ti  Ti68  1  0.75000000  0.25000000  0.75000000  1
  Ti  Ti69  1  0.00000000  0.00000000  0.00000000  1
  Ti  Ti70  1  0.75000000  0.75000000  0.25000000  1
  Ti  Ti71  1  0.00000000  0.50000000  0.50000000  1
  As  As72  1  0.14509133  0.14509133  0.35490867  1
  As  As73  1  0.14509133  0.35490867  0.14509133  1
  As  As74  1  0.60490867  0.10490867  0.39509133  1
  As  As75  1  0.10490867  0.89509133  0.10490867  1
  As  As76  1  0.89509133  0.10490867  0.10490867  1
  As  As77  1  0.35490867  0.35490867  0.35490867  1
  As  As78  1  0.35490867  0.14509133  0.14509133  1
  As  As79  1  0.39509133  0.89509133  0.39509133  1
  As  As80  1  0.14509133  0.64509133  0.85490867  1
  As  As81  1  0.14509133  0.85490867  0.64509133  1
  As  As82  1  0.60490867  0.60490867  0.89509133  1
  As  As83  1  0.10490867  0.39509133  0.60490867  1
  As  As84  1  0.89509133  0.60490867  0.60490867  1
  As  As85  1  0.35490867  0.85490867  0.85490867  1
  As  As86  1  0.35490867  0.64509133  0.64509133  1
  As  As87  1  0.39509133  0.39509133  0.89509133  1
  As  As88  1  0.64509133  0.14509133  0.85490867  1
  As  As89  1  0.64509133  0.35490867  0.64509133  1
  As  As90  1  0.10490867  0.10490867  0.89509133  1
  As  As91  1  0.60490867  0.89509133  0.60490867  1
  As  As92  1  0.39509133  0.10490867  0.60490867  1
  As  As93  1  0.85490867  0.35490867  0.85490867  1
  As  As94  1  0.85490867  0.14509133  0.64509133  1
  As  As95  1  0.89509133  0.89509133  0.89509133  1
  As  As96  1  0.64509133  0.64509133  0.35490867  1
  As  As97  1  0.64509133  0.85490867  0.14509133  1
  As  As98  1  0.10490867  0.60490867  0.39509133  1
  As  As99  1  0.60490867  0.39509133  0.10490867  1
  As  As100  1  0.39509133  0.60490867  0.10490867  1
  As  As101  1  0.85490867  0.85490867  0.35490867  1
  As  As102  1  0.85490867  0.64509133  0.14509133  1
  As  As103  1  0.89509133  0.39509133  0.39509133  1
