# generated using pymatgen
data_TlGeBr3
_symmetry_space_group_name_H-M   'P 1'
_cell_length_a   7.91190400
_cell_length_b   7.81522400
_cell_length_c   5.55133021
_cell_angle_alpha   90.00000000
_cell_angle_beta   91.25290473
_cell_angle_gamma   90.00000000
_symmetry_Int_Tables_number   1
_chemical_formula_structural   TlGeBr3
_chemical_formula_sum   'Tl2 Ge2 Br6'
_cell_volume   343.17501175
_cell_formula_units_Z   2
loop_
 _symmetry_equiv_pos_site_id
 _symmetry_equiv_pos_as_xyz
  1  'x, y, z'
loop_
 _atom_site_type_symbol
 _atom_site_label
 _atom_site_symmetry_multiplicity
 _atom_site_fract_x
 _atom_site_fract_y
 _atom_site_fract_z
 _atom_site_occupancy
  Tl  Tl0  1  0.49519900  0.50000000  0.99460400  1
  Tl  Tl1  1  0.99519900  0.00000000  0.99460400  1
  Ge  Ge2  1  0.98276700  0.50000000  0.53132500  1
  Ge  Ge3  1  0.48276700  0.00000000  0.53132500  1
  Br  Br4  1  0.75635900  0.25415300  0.51639600  1
  Br  Br5  1  0.00956700  0.50000000  0.00478300  1
  Br  Br6  1  0.75635900  0.74584700  0.51639600  1
  Br  Br7  1  0.25635900  0.75415300  0.51639600  1
  Br  Br8  1  0.50956700  0.00000000  0.00478300  1
  Br  Br9  1  0.25635900  0.24584700  0.51639600  1
