# generated using pymatgen
data_CaTlCl3
_symmetry_space_group_name_H-M   'P 1'
_cell_length_a   4.12697600
_cell_length_b   13.87599000
_cell_length_c   10.34836500
_cell_angle_alpha   90.00000000
_cell_angle_beta   90.00000000
_cell_angle_gamma   90.00000000
_symmetry_Int_Tables_number   1
_chemical_formula_structural   CaTlCl3
_chemical_formula_sum   'Ca4 Tl4 Cl12'
_cell_volume   592.60820455
_cell_formula_units_Z   4
loop_
 _symmetry_equiv_pos_site_id
 _symmetry_equiv_pos_as_xyz
  1  'x, y, z'
loop_
 _atom_site_type_symbol
 _atom_site_label
 _atom_site_symmetry_multiplicity
 _atom_site_fract_x
 _atom_site_fract_y
 _atom_site_fract_z
 _atom_site_occupancy
  Ca  Ca0  1  0.00000000  0.00000000  0.00000000  1
  Ca  Ca1  1  0.00000000  0.00000000  0.50000000  1
  Ca  Ca2  1  0.50000000  0.50000000  0.00000000  1
  Ca  Ca3  1  0.50000000  0.50000000  0.50000000  1
  Tl  Tl4  1  0.00000000  0.25879800  0.25000000  1
  Tl  Tl5  1  0.50000000  0.24120200  0.75000000  1
  Tl  Tl6  1  0.50000000  0.75879800  0.25000000  1
  Tl  Tl7  1  0.00000000  0.74120200  0.75000000  1
  Cl  Cl8  1  0.00000000  0.37129600  0.94975900  1
  Cl  Cl9  1  0.50000000  0.12870400  0.44975900  1
  Cl  Cl10  1  0.00000000  0.37129600  0.55024100  1
  Cl  Cl11  1  0.50000000  0.12870400  0.05024100  1
  Cl  Cl12  1  0.50000000  0.43110200  0.25000000  1
  Cl  Cl13  1  0.00000000  0.06889800  0.75000000  1
  Cl  Cl14  1  0.50000000  0.87129600  0.94975900  1
  Cl  Cl15  1  0.00000000  0.62870400  0.44975900  1
  Cl  Cl16  1  0.50000000  0.87129600  0.55024100  1
  Cl  Cl17  1  0.00000000  0.62870400  0.05024100  1
  Cl  Cl18  1  0.00000000  0.93110200  0.25000000  1
  Cl  Cl19  1  0.50000000  0.56889800  0.75000000  1
