# generated using pymatgen
data_KBaP
_symmetry_space_group_name_H-M   'P 1'
_cell_length_a   7.36468600
_cell_length_b   7.36468600
_cell_length_c   7.36468600
_cell_angle_alpha   90.00000000
_cell_angle_beta   90.00000000
_cell_angle_gamma   90.00000000
_symmetry_Int_Tables_number   1
_chemical_formula_structural   KBaP
_chemical_formula_sum   'K4 Ba4 P4'
_cell_volume   399.45025719
_cell_formula_units_Z   4
loop_
 _symmetry_equiv_pos_site_id
 _symmetry_equiv_pos_as_xyz
  1  'x, y, z'
loop_
 _atom_site_type_symbol
 _atom_site_label
 _atom_site_symmetry_multiplicity
 _atom_site_fract_x
 _atom_site_fract_y
 _atom_site_fract_z
 _atom_site_occupancy
  K  K0  1  0.25000000  0.25000000  0.25000000  1
  K  K1  1  0.25000000  0.75000000  0.75000000  1
  K  K2  1  0.75000000  0.25000000  0.75000000  1
  K  K3  1  0.75000000  0.75000000  0.25000000  1
  Ba  Ba4  1  0.50000000  0.00000000  0.00000000  1
  Ba  Ba5  1  0.50000000  0.50000000  0.50000000  1
  Ba  Ba6  1  0.00000000  0.00000000  0.50000000  1
  Ba  Ba7  1  0.00000000  0.50000000  0.00000000  1
  P  P8  1  0.00000000  0.00000000  0.00000000  1
  P  P9  1  0.00000000  0.50000000  0.50000000  1
  P  P10  1  0.50000000  0.00000000  0.50000000  1
  P  P11  1  0.50000000  0.50000000  0.00000000  1
