# generated using pymatgen
data_BiS2
_symmetry_space_group_name_H-M   'P 1'
_cell_length_a   15.96761800
_cell_length_b   4.08241800
_cell_length_c   11.62724587
_cell_angle_alpha   90.00000000
_cell_angle_beta   127.35693148
_cell_angle_gamma   90.00000000
_symmetry_Int_Tables_number   1
_chemical_formula_structural   BiS2
_chemical_formula_sum   'Bi8 S16'
_cell_volume   602.46398096
_cell_formula_units_Z   8
loop_
 _symmetry_equiv_pos_site_id
 _symmetry_equiv_pos_as_xyz
  1  'x, y, z'
loop_
 _atom_site_type_symbol
 _atom_site_label
 _atom_site_symmetry_multiplicity
 _atom_site_fract_x
 _atom_site_fract_y
 _atom_site_fract_z
 _atom_site_occupancy
  Bi  Bi0  1  0.29747200  0.00000000  0.89826100  1
  Bi  Bi1  1  0.70252800  0.00000000  0.10173900  1
  Bi  Bi2  1  0.10730300  0.50000000  0.38780300  1
  Bi  Bi3  1  0.89269700  0.50000000  0.61219700  1
  Bi  Bi4  1  0.79747200  0.50000000  0.89826100  1
  Bi  Bi5  1  0.20252800  0.50000000  0.10173900  1
  Bi  Bi6  1  0.60730300  0.00000000  0.38780300  1
  Bi  Bi7  1  0.39269700  0.00000000  0.61219700  1
  S  S8  1  0.96373500  0.00000000  0.04962500  1
  S  S9  1  0.03626500  0.00000000  0.95037500  1
  S  S10  1  0.07646400  0.00000000  0.53381000  1
  S  S11  1  0.92353600  0.00000000  0.46619000  1
  S  S12  1  0.84266700  0.50000000  0.15756700  1
  S  S13  1  0.15733300  0.50000000  0.84243300  1
  S  S14  1  0.28776200  0.50000000  0.65087000  1
  S  S15  1  0.71223800  0.50000000  0.34913000  1
  S  S16  1  0.46373500  0.50000000  0.04962500  1
  S  S17  1  0.53626500  0.50000000  0.95037500  1
  S  S18  1  0.57646400  0.50000000  0.53381000  1
  S  S19  1  0.42353600  0.50000000  0.46619000  1
  S  S20  1  0.34266700  0.00000000  0.15756700  1
  S  S21  1  0.65733300  0.00000000  0.84243300  1
  S  S22  1  0.78776200  0.00000000  0.65087000  1
  S  S23  1  0.21223800  0.00000000  0.34913000  1
