# generated using pymatgen
data_Rb3BP2
_symmetry_space_group_name_H-M   'P 1'
_cell_length_a   9.69495600
_cell_length_b   9.35075400
_cell_length_c   9.43387008
_cell_angle_alpha   90.00000000
_cell_angle_beta   110.28857184
_cell_angle_gamma   90.00000000
_symmetry_Int_Tables_number   1
_chemical_formula_structural   Rb3BP2
_chemical_formula_sum   'Rb12 B4 P8'
_cell_volume   802.16888150
_cell_formula_units_Z   4
loop_
 _symmetry_equiv_pos_site_id
 _symmetry_equiv_pos_as_xyz
  1  'x, y, z'
loop_
 _atom_site_type_symbol
 _atom_site_label
 _atom_site_symmetry_multiplicity
 _atom_site_fract_x
 _atom_site_fract_y
 _atom_site_fract_z
 _atom_site_occupancy
  Rb  Rb0  1  0.20565450  0.44912850  0.98080600  1
  Rb  Rb1  1  0.79434550  0.44912850  0.51919400  1
  Rb  Rb2  1  0.79434550  0.55087150  0.01919400  1
  Rb  Rb3  1  0.20565450  0.55087150  0.48080600  1
  Rb  Rb4  1  0.00000000  0.84465200  0.75000000  1
  Rb  Rb5  1  0.00000000  0.15534800  0.25000000  1
  Rb  Rb6  1  0.70565450  0.94912850  0.98080600  1
  Rb  Rb7  1  0.29434550  0.94912850  0.51919400  1
  Rb  Rb8  1  0.29434550  0.05087150  0.01919400  1
  Rb  Rb9  1  0.70565450  0.05087150  0.48080600  1
  Rb  Rb10  1  0.50000000  0.34465200  0.75000000  1
  Rb  Rb11  1  0.50000000  0.65534800  0.25000000  1
  B  B12  1  0.00000000  0.78300100  0.25000000  1
  B  B13  1  0.00000000  0.21699900  0.75000000  1
  B  B14  1  0.50000000  0.28300100  0.25000000  1
  B  B15  1  0.50000000  0.71699900  0.75000000  1
  P  P16  1  0.87708200  0.77921400  0.35320600  1
  P  P17  1  0.12291800  0.77921400  0.14679400  1
  P  P18  1  0.87708200  0.22078600  0.85320600  1
  P  P19  1  0.12291800  0.22078600  0.64679400  1
  P  P20  1  0.37708200  0.27921400  0.35320600  1
  P  P21  1  0.62291800  0.27921400  0.14679400  1
  P  P22  1  0.37708200  0.72078600  0.85320600  1
  P  P23  1  0.62291800  0.72078600  0.64679400  1
