# generated using pymatgen
data_AuClO2
_symmetry_space_group_name_H-M   'P 1'
_cell_length_a   5.18331800
_cell_length_b   20.52502600
_cell_length_c   3.44797839
_cell_angle_alpha   90.00000000
_cell_angle_beta   97.62643545
_cell_angle_gamma   90.00000000
_symmetry_Int_Tables_number   1
_chemical_formula_structural   AuClO2
_chemical_formula_sum   'Au4 Cl4 O8'
_cell_volume   363.57785609
_cell_formula_units_Z   4
loop_
 _symmetry_equiv_pos_site_id
 _symmetry_equiv_pos_as_xyz
  1  'x, y, z'
loop_
 _atom_site_type_symbol
 _atom_site_label
 _atom_site_symmetry_multiplicity
 _atom_site_fract_x
 _atom_site_fract_y
 _atom_site_fract_z
 _atom_site_occupancy
  Au  Au0  1  0.25000000  0.75000000  0.00000000  1
  Au  Au1  1  0.75000000  0.75000000  0.50000000  1
  Au  Au2  1  0.75000000  0.25000000  0.00000000  1
  Au  Au3  1  0.25000000  0.25000000  0.50000000  1
  Cl  Cl4  1  0.50000000  0.84088000  0.25000000  1
  Cl  Cl5  1  0.00000000  0.65912000  0.75000000  1
  Cl  Cl6  1  0.00000000  0.34088000  0.25000000  1
  Cl  Cl7  1  0.50000000  0.15912000  0.75000000  1
  O  O8  1  0.38013000  0.53352000  0.22611000  1
  O  O9  1  0.61987000  0.53352000  0.27389000  1
  O  O10  1  0.88013000  0.96648000  0.72611000  1
  O  O11  1  0.11987000  0.96648000  0.77389000  1
  O  O12  1  0.88013000  0.03352000  0.22611000  1
  O  O13  1  0.11987000  0.03352000  0.27389000  1
  O  O14  1  0.38013000  0.46648000  0.72611000  1
  O  O15  1  0.61987000  0.46648000  0.77389000  1
