# generated using pymatgen
data_LiC2NO6
_symmetry_space_group_name_H-M   'P 1'
_cell_length_a   4.54014633
_cell_length_b   4.54014633
_cell_length_c   14.92772760
_cell_angle_alpha   90.00000000
_cell_angle_beta   90.00000000
_cell_angle_gamma   120.00000000
_symmetry_Int_Tables_number   1
_chemical_formula_structural   LiC2NO6
_chemical_formula_sum   'Li3 C6 N3 O18'
_cell_volume   266.47964052
_cell_formula_units_Z   3
loop_
 _symmetry_equiv_pos_site_id
 _symmetry_equiv_pos_as_xyz
  1  'x, y, z'
loop_
 _atom_site_type_symbol
 _atom_site_label
 _atom_site_symmetry_multiplicity
 _atom_site_fract_x
 _atom_site_fract_y
 _atom_site_fract_z
 _atom_site_occupancy
  Li  Li0  1  0.00000000  0.00000000  0.00000000  1
  Li  Li1  1  0.66666667  0.33333333  0.33333333  1
  Li  Li2  1  0.33333333  0.66666667  0.66666667  1
  C  C3  1  0.66666667  0.33333333  0.09261033  1
  C  C4  1  0.00000000  0.00000000  0.24072300  1
  C  C5  1  0.33333333  0.66666667  0.42594367  1
  C  C6  1  0.66666667  0.33333333  0.57405633  1
  C  C7  1  0.00000000  0.00000000  0.75927700  1
  C  C8  1  0.33333333  0.66666667  0.90738967  1
  N  N9  1  0.33333333  0.66666667  0.16666667  1
  N  N10  1  1.00000000  0.00000000  0.50000000  1
  N  N11  1  0.66666667  0.33333333  0.83333333  1
  O  O12  1  0.27960967  0.98820433  0.24395433  1
  O  O13  1  0.65487100  0.04192800  0.08937900  1
  O  O14  1  0.95807200  0.61294300  0.08937900  1
  O  O15  1  0.70859467  0.72039033  0.24395433  1
  O  O16  1  0.01179567  0.29140533  0.24395433  1
  O  O17  1  0.38705700  0.34512900  0.08937900  1
  O  O18  1  0.94627633  0.32153767  0.57728767  1
  O  O19  1  0.32153767  0.37526133  0.42271233  1
  O  O20  1  0.62473867  0.94627633  0.42271233  1
  O  O21  1  0.37526133  0.05372367  0.57728767  1
  O  O22  1  0.67846233  0.62473867  0.57728767  1
  O  O23  1  0.05372367  0.67846233  0.42271233  1
  O  O24  1  0.61294300  0.65487100  0.91062100  1
  O  O25  1  0.98820433  0.70859467  0.75604567  1
  O  O26  1  0.29140533  0.27960967  0.75604567  1
  O  O27  1  0.04192800  0.38705700  0.91062100  1
  O  O28  1  0.34512900  0.95807200  0.91062100  1
  O  O29  1  0.72039033  0.01179567  0.75604567  1
