# generated using pymatgen
data_KCa9Mg(PO4)7
_symmetry_space_group_name_H-M   'P 1'
_cell_length_a   10.51007210
_cell_length_b   10.51007210
_cell_length_c   37.29893869
_cell_angle_alpha   90.00000000
_cell_angle_beta   90.00000000
_cell_angle_gamma   120.00000000
_symmetry_Int_Tables_number   1
_chemical_formula_structural   KCa9Mg(PO4)7
_chemical_formula_sum   'K6 Ca54 Mg6 P42 O168'
_cell_volume   3568.11215415
_cell_formula_units_Z   6
loop_
 _symmetry_equiv_pos_site_id
 _symmetry_equiv_pos_as_xyz
  1  'x, y, z'
loop_
 _atom_site_type_symbol
 _atom_site_label
 _atom_site_symmetry_multiplicity
 _atom_site_fract_x
 _atom_site_fract_y
 _atom_site_fract_z
 _atom_site_occupancy
  K  K0  1  0.00000000  0.00000000  0.31669000  1
  K  K1  1  0.66666667  0.33333333  0.15002333  1
  K  K2  1  0.66666667  0.33333333  0.65002333  1
  K  K3  1  0.33333333  0.66666667  0.48335667  1
  K  K4  1  0.33333333  0.66666667  0.98335667  1
  K  K5  1  0.00000000  0.00000000  0.81669000  1
  Ca  Ca6  1  0.88179667  0.14575633  0.17488833  1
  Ca  Ca7  1  0.26395967  0.11820333  0.17488833  1
  Ca  Ca8  1  0.85424367  0.73604033  0.17488833  1
  Ca  Ca9  1  0.52091033  0.45153667  0.00822167  1
  Ca  Ca10  1  0.93062633  0.47908967  0.00822167  1
  Ca  Ca11  1  0.54846333  0.06937367  0.00822167  1
  Ca  Ca12  1  0.38816433  0.21280467  0.26797467  1
  Ca  Ca13  1  0.82464033  0.61183567  0.26797467  1
  Ca  Ca14  1  0.78719533  0.17535967  0.26797467  1
  Ca  Ca15  1  0.45386200  0.94516900  0.10130800  1
  Ca  Ca16  1  0.49130700  0.54613800  0.10130800  1
  Ca  Ca17  1  0.05483100  0.50869300  0.10130800  1
  Ca  Ca18  1  0.27245867  0.13064533  0.06798233  1
  Ca  Ca19  1  0.85818667  0.72754133  0.06798233  1
  Ca  Ca20  1  0.86935467  0.14181333  0.06798233  1
  Ca  Ca21  1  0.20268800  0.39420800  0.23464900  1
  Ca  Ca22  1  0.19152000  0.79731200  0.23464900  1
  Ca  Ca23  1  0.60579200  0.80848000  0.23464900  1
  Ca  Ca24  1  0.54846333  0.47908967  0.50822167  1
  Ca  Ca25  1  0.93062633  0.45153667  0.50822167  1
  Ca  Ca26  1  0.52091033  0.06937367  0.50822167  1
  Ca  Ca27  1  0.18757700  0.78487000  0.34155500  1
  Ca  Ca28  1  0.59729300  0.81242300  0.34155500  1
  Ca  Ca29  1  0.21513000  0.40270700  0.34155500  1
  Ca  Ca30  1  0.05483100  0.54613800  0.60130800  1
  Ca  Ca31  1  0.49130700  0.94516900  0.60130800  1
  Ca  Ca32  1  0.45386200  0.50869300  0.60130800  1
  Ca  Ca33  1  0.12052867  0.27850233  0.43464133  1
  Ca  Ca34  1  0.15797367  0.87947133  0.43464133  1
  Ca  Ca35  1  0.72149767  0.84202633  0.43464133  1
  Ca  Ca36  1  0.93912533  0.46397867  0.40131567  1
  Ca  Ca37  1  0.52485333  0.06087467  0.40131567  1
  Ca  Ca38  1  0.53602133  0.47514667  0.40131567  1
  Ca  Ca39  1  0.86935467  0.72754133  0.56798233  1
  Ca  Ca40  1  0.85818667  0.13064533  0.56798233  1
  Ca  Ca41  1  0.27245867  0.14181333  0.56798233  1
  Ca  Ca42  1  0.21513000  0.81242300  0.84155500  1
  Ca  Ca43  1  0.59729300  0.78487000  0.84155500  1
  Ca  Ca44  1  0.18757700  0.40270700  0.84155500  1
  Ca  Ca45  1  0.85424367  0.11820333  0.67488833  1
  Ca  Ca46  1  0.26395967  0.14575633  0.67488833  1
  Ca  Ca47  1  0.88179667  0.73604033  0.67488833  1
  Ca  Ca48  1  0.72149767  0.87947133  0.93464133  1
  Ca  Ca49  1  0.15797367  0.27850233  0.93464133  1
  Ca  Ca50  1  0.12052867  0.84202633  0.93464133  1
  Ca  Ca51  1  0.78719533  0.61183567  0.76797467  1
  Ca  Ca52  1  0.82464033  0.21280467  0.76797467  1
  Ca  Ca53  1  0.38816433  0.17535967  0.76797467  1
  Ca  Ca54  1  0.60579200  0.79731200  0.73464900  1
  Ca  Ca55  1  0.19152000  0.39420800  0.73464900  1
  Ca  Ca56  1  0.20268800  0.80848000  0.73464900  1
  Ca  Ca57  1  0.53602133  0.06087467  0.90131567  1
  Ca  Ca58  1  0.52485333  0.46397867  0.90131567  1
  Ca  Ca59  1  0.93912533  0.47514667  0.90131567  1
  Mg  Mg60  1  0.33333333  0.66666667  0.16676067  1
  Mg  Mg61  1  0.00000000  0.00000000  0.00009400  1
  Mg  Mg62  1  0.00000000  0.00000000  0.50009400  1
  Mg  Mg63  1  0.66666667  0.33333333  0.33342733  1
  Mg  Mg64  1  0.66666667  0.33333333  0.83342733  1
  Mg  Mg65  1  0.33333333  0.66666667  0.66676067  1
  P  P66  1  0.19516833  0.34882867  0.03152667  1
  P  P67  1  0.47165800  0.99003600  0.30238900  1
  P  P68  1  0.51837800  0.52834200  0.30238900  1
  P  P69  1  0.00996400  0.48162200  0.30238900  1
  P  P70  1  0.65117133  0.84633967  0.03152667  1
  P  P71  1  0.13832467  0.81495533  0.13572233  1
  P  P72  1  0.15366033  0.80483167  0.03152667  1
  P  P73  1  0.18504467  0.32336933  0.13572233  1
  P  P74  1  0.52850167  0.51300633  0.19819333  1
  P  P75  1  0.98450467  0.47149833  0.19819333  1
  P  P76  1  0.00000000  0.00000000  0.23282700  1
  P  P77  1  0.66666667  0.33333333  0.06616033  1
  P  P78  1  0.67663067  0.86167533  0.13572233  1
  P  P79  1  0.48699367  0.01549533  0.19819333  1
  P  P80  1  0.86183500  0.68216200  0.36486000  1
  P  P81  1  0.13832467  0.32336933  0.63572233  1
  P  P82  1  0.18504467  0.86167533  0.63572233  1
  P  P83  1  0.67663067  0.81495533  0.63572233  1
  P  P84  1  0.31783800  0.17967300  0.36486000  1
  P  P85  1  0.80499133  0.14828867  0.46905567  1
  P  P86  1  0.82032700  0.13816500  0.36486000  1
  P  P87  1  0.85171133  0.65670267  0.46905567  1
  P  P88  1  0.19516833  0.84633967  0.53152667  1
  P  P89  1  0.65117133  0.80483167  0.53152667  1
  P  P90  1  0.66666667  0.33333333  0.56616033  1
  P  P91  1  0.33333333  0.66666667  0.39949367  1
  P  P92  1  0.34329733  0.19500867  0.46905567  1
  P  P93  1  0.15366033  0.34882867  0.53152667  1
  P  P94  1  0.52850167  0.01549533  0.69819333  1
  P  P95  1  0.80499133  0.65670267  0.96905567  1
  P  P96  1  0.85171133  0.19500867  0.96905567  1
  P  P97  1  0.34329733  0.14828867  0.96905567  1
  P  P98  1  0.98450467  0.51300633  0.69819333  1
  P  P99  1  0.47165800  0.48162200  0.80238900  1
  P  P100  1  0.48699367  0.47149833  0.69819333  1
  P  P101  1  0.51837800  0.99003600  0.80238900  1
  P  P102  1  0.86183500  0.17967300  0.86486000  1
  P  P103  1  0.31783800  0.13816500  0.86486000  1
  P  P104  1  0.33333333  0.66666667  0.89949367  1
  P  P105  1  0.00000000  0.00000000  0.73282700  1
  P  P106  1  0.00996400  0.52834200  0.80238900  1
  P  P107  1  0.82032700  0.68216200  0.86486000  1
  O  O108  1  0.71167933  0.86576867  0.17614867  1
  O  O109  1  0.15408933  0.28832067  0.17614867  1
  O  O110  1  0.13423133  0.84591067  0.17614867  1
  O  O111  1  0.80089800  0.62165400  0.00948200  1
  O  O112  1  0.82075600  0.19910200  0.00948200  1
  O  O113  1  0.37834600  0.17924400  0.00948200  1
  O  O114  1  0.50726033  0.76835467  0.12897467  1
  O  O115  1  0.26109433  0.49273967  0.12897467  1
  O  O116  1  0.23164533  0.73890567  0.12897467  1
  O  O117  1  0.56497867  0.15940633  0.29564133  1
  O  O118  1  0.59442767  0.43502133  0.29564133  1
  O  O119  1  0.84059367  0.40557233  0.29564133  1
  O  O120  1  0.75171800  0.78821000  0.11550100  1
  O  O121  1  0.03649200  0.24828200  0.11550100  1
  O  O122  1  0.21179000  0.96350800  0.11550100  1
  O  O123  1  0.54512333  0.91494867  0.28216767  1
  O  O124  1  0.36982533  0.45487667  0.28216767  1
  O  O125  1  0.08505133  0.63017467  0.28216767  1
  O  O126  1  0.73231000  0.02251500  0.12352600  1
  O  O127  1  0.29020500  0.26769000  0.12352600  1
  O  O128  1  0.97748500  0.70979500  0.12352600  1
  O  O129  1  0.31081833  0.93435667  0.29019267  1
  O  O130  1  0.57279433  0.68449767  0.04430267  1
  O  O131  1  0.62353833  0.68918167  0.29019267  1
  O  O132  1  0.82191833  0.91378467  0.03615367  1
  O  O133  1  0.09186633  0.17808167  0.03615367  1
  O  O134  1  0.08621533  0.90813367  0.03615367  1
  O  O135  1  0.41954867  0.84474833  0.20282033  1
  O  O136  1  0.42519967  0.58045133  0.20282033  1
  O  O137  1  0.15525167  0.57480033  0.20282033  1
  O  O138  1  0.61091867  0.94615733  0.05442733  1
  O  O139  1  0.33523867  0.38908133  0.05442733  1
  O  O140  1  0.05384267  0.66476133  0.05442733  1
  O  O141  1  0.38717600  0.05574800  0.22109400  1
  O  O142  1  0.66857200  0.61282400  0.22109400  1
  O  O143  1  0.94425200  0.33142800  0.22109400  1
  O  O144  1  0.66666667  0.33333333  0.02456533  1
  O  O145  1  0.00000000  0.00000000  0.19123200  1
  O  O146  1  0.65873867  0.46974033  0.07965133  1
  O  O147  1  0.53025967  0.18899833  0.07965133  1
  O  O148  1  0.81100167  0.34126133  0.07965133  1
  O  O149  1  0.14433500  0.13640700  0.24631800  1
  O  O150  1  0.86359300  0.00792800  0.24631800  1
  O  O151  1  0.99207200  0.85566500  0.24631800  1
  O  O152  1  0.94422467  0.41780733  0.15903933  1
  O  O153  1  0.58219267  0.52641733  0.15903933  1
  O  O154  1  0.47358267  0.05577533  0.15903933  1
  O  O155  1  0.80691600  0.08447400  0.32570600  1
  O  O156  1  0.91552600  0.72244200  0.32570600  1
  O  O157  1  0.27755800  0.19308400  0.32570600  1
  O  O158  1  0.90612767  0.55496333  0.21096933  1
  O  O159  1  0.44503667  0.35116433  0.21096933  1
  O  O160  1  0.64883567  0.09387233  0.21096933  1
  O  O161  1  0.31550233  0.88829667  0.04430267  1
  O  O162  1  0.11170333  0.42720567  0.04430267  1
  O  O163  1  0.06564333  0.37646167  0.29019267  1
  O  O164  1  0.37834600  0.19910200  0.50948200  1
  O  O165  1  0.82075600  0.62165400  0.50948200  1
  O  O166  1  0.80089800  0.17924400  0.50948200  1
  O  O167  1  0.46756467  0.95498733  0.34281533  1
  O  O168  1  0.48742267  0.53243533  0.34281533  1
  O  O169  1  0.04501267  0.51257733  0.34281533  1
  O  O170  1  0.17392700  0.10168800  0.46230800  1
  O  O171  1  0.92776100  0.82607300  0.46230800  1
  O  O172  1  0.89831200  0.07223900  0.46230800  1
  O  O173  1  0.23164533  0.49273967  0.62897467  1
  O  O174  1  0.26109433  0.76835467  0.62897467  1
  O  O175  1  0.50726033  0.73890567  0.62897467  1
  O  O176  1  0.41838467  0.12154333  0.44883433  1
  O  O177  1  0.70315867  0.58161533  0.44883433  1
  O  O178  1  0.87845667  0.29684133  0.44883433  1
  O  O179  1  0.21179000  0.24828200  0.61550100  1
  O  O180  1  0.03649200  0.78821000  0.61550100  1
  O  O181  1  0.75171800  0.96350800  0.61550100  1
  O  O182  1  0.39897667  0.35584833  0.45685933  1
  O  O183  1  0.95687167  0.60102333  0.45685933  1
  O  O184  1  0.64415167  0.04312833  0.45685933  1
  O  O185  1  0.97748500  0.26769000  0.62352600  1
  O  O186  1  0.23946100  0.01783100  0.37763600  1
  O  O187  1  0.29020500  0.02251500  0.62352600  1
  O  O188  1  0.48858500  0.24711800  0.36948700  1
  O  O189  1  0.75853300  0.51141500  0.36948700  1
  O  O190  1  0.75288200  0.24146700  0.36948700  1
  O  O191  1  0.08621533  0.17808167  0.53615367  1
  O  O192  1  0.09186633  0.91378467  0.53615367  1
  O  O193  1  0.82191833  0.90813367  0.53615367  1
  O  O194  1  0.27758533  0.27949067  0.38776067  1
  O  O195  1  0.00190533  0.72241467  0.38776067  1
  O  O196  1  0.72050933  0.99809467  0.38776067  1
  O  O197  1  0.05384267  0.38908133  0.55442733  1
  O  O198  1  0.33523867  0.94615733  0.55442733  1
  O  O199  1  0.61091867  0.66476133  0.55442733  1
  O  O200  1  0.33333333  0.66666667  0.35789867  1
  O  O201  1  0.66666667  0.33333333  0.52456533  1
  O  O202  1  0.32540533  0.80307367  0.41298467  1
  O  O203  1  0.19692633  0.52233167  0.41298467  1
  O  O204  1  0.47766833  0.67459467  0.41298467  1
  O  O205  1  0.81100167  0.46974033  0.57965133  1
  O  O206  1  0.53025967  0.34126133  0.57965133  1
  O  O207  1  0.65873867  0.18899833  0.57965133  1
  O  O208  1  0.61089133  0.75114067  0.49237267  1
  O  O209  1  0.24885933  0.85975067  0.49237267  1
  O  O210  1  0.14024933  0.38910867  0.49237267  1
  O  O211  1  0.47358267  0.41780733  0.65903933  1
  O  O212  1  0.58219267  0.05577533  0.65903933  1
  O  O213  1  0.94422467  0.52641733  0.65903933  1
  O  O214  1  0.57279433  0.88829667  0.54430267  1
  O  O215  1  0.11170333  0.68449767  0.54430267  1
  O  O216  1  0.31550233  0.42720567  0.54430267  1
  O  O217  1  0.98216900  0.22163000  0.37763600  1
  O  O218  1  0.77837000  0.76053900  0.37763600  1
  O  O219  1  0.73231000  0.70979500  0.62352600  1
  O  O220  1  0.04501267  0.53243533  0.84281533  1
  O  O221  1  0.48742267  0.95498733  0.84281533  1
  O  O222  1  0.46756467  0.51257733  0.84281533  1
  O  O223  1  0.13423133  0.28832067  0.67614867  1
  O  O224  1  0.15408933  0.86576867  0.67614867  1
  O  O225  1  0.71167933  0.84591067  0.67614867  1
  O  O226  1  0.84059367  0.43502133  0.79564133  1
  O  O227  1  0.59442767  0.15940633  0.79564133  1
  O  O228  1  0.56497867  0.40557233  0.79564133  1
  O  O229  1  0.89831200  0.82607300  0.96230800  1
  O  O230  1  0.92776100  0.10168800  0.96230800  1
  O  O231  1  0.17392700  0.07223900  0.96230800  1
  O  O232  1  0.08505133  0.45487667  0.78216767  1
  O  O233  1  0.36982533  0.91494867  0.78216767  1
  O  O234  1  0.54512333  0.63017467  0.78216767  1
  O  O235  1  0.87845667  0.58161533  0.94883433  1
  O  O236  1  0.70315867  0.12154333  0.94883433  1
  O  O237  1  0.41838467  0.29684133  0.94883433  1
  O  O238  1  0.06564333  0.68918167  0.79019267  1
  O  O239  1  0.62353833  0.93435667  0.79019267  1
  O  O240  1  0.31081833  0.37646167  0.79019267  1
  O  O241  1  0.64415167  0.60102333  0.95685933  1
  O  O242  1  0.90612767  0.35116433  0.71096933  1
  O  O243  1  0.95687167  0.35584833  0.95685933  1
  O  O244  1  0.15525167  0.58045133  0.70282033  1
  O  O245  1  0.42519967  0.84474833  0.70282033  1
  O  O246  1  0.41954867  0.57480033  0.70282033  1
  O  O247  1  0.75288200  0.51141500  0.86948700  1
  O  O248  1  0.75853300  0.24711800  0.86948700  1
  O  O249  1  0.48858500  0.24146700  0.86948700  1
  O  O250  1  0.94425200  0.61282400  0.72109400  1
  O  O251  1  0.66857200  0.05574800  0.72109400  1
  O  O252  1  0.38717600  0.33142800  0.72109400  1
  O  O253  1  0.72050933  0.72241467  0.88776067  1
  O  O254  1  0.00190533  0.27949067  0.88776067  1
  O  O255  1  0.27758533  0.99809467  0.88776067  1
  O  O256  1  0.00000000  0.00000000  0.69123200  1
  O  O257  1  0.33333333  0.66666667  0.85789867  1
  O  O258  1  0.99207200  0.13640700  0.74631800  1
  O  O259  1  0.86359300  0.85566500  0.74631800  1
  O  O260  1  0.14433500  0.00792800  0.74631800  1
  O  O261  1  0.47766833  0.80307367  0.91298467  1
  O  O262  1  0.19692633  0.67459467  0.91298467  1
  O  O263  1  0.32540533  0.52233167  0.91298467  1
  O  O264  1  0.27755800  0.08447400  0.82570600  1
  O  O265  1  0.91552600  0.19308400  0.82570600  1
  O  O266  1  0.80691600  0.72244200  0.82570600  1
  O  O267  1  0.14024933  0.75114067  0.99237267  1
  O  O268  1  0.24885933  0.38910867  0.99237267  1
  O  O269  1  0.61089133  0.85975067  0.99237267  1
  O  O270  1  0.23946100  0.22163000  0.87763600  1
  O  O271  1  0.77837000  0.01783100  0.87763600  1
  O  O272  1  0.98216900  0.76053900  0.87763600  1
  O  O273  1  0.64883567  0.55496333  0.71096933  1
  O  O274  1  0.44503667  0.09387233  0.71096933  1
  O  O275  1  0.39897667  0.04312833  0.95685933  1
