# generated using pymatgen
data_Sr4Al6TeO12
_symmetry_space_group_name_H-M   'P 1'
_cell_length_a   9.46965800
_cell_length_b   9.46965800
_cell_length_c   9.46965800
_cell_angle_alpha   90.00000000
_cell_angle_beta   90.00000000
_cell_angle_gamma   90.00000000
_symmetry_Int_Tables_number   1
_chemical_formula_structural   Sr4Al6TeO12
_chemical_formula_sum   'Sr8 Al12 Te2 O24'
_cell_volume   849.18611372
_cell_formula_units_Z   2
loop_
 _symmetry_equiv_pos_site_id
 _symmetry_equiv_pos_as_xyz
  1  'x, y, z'
loop_
 _atom_site_type_symbol
 _atom_site_label
 _atom_site_symmetry_multiplicity
 _atom_site_fract_x
 _atom_site_fract_y
 _atom_site_fract_z
 _atom_site_occupancy
  Sr  Sr0  1  0.29600900  0.29600900  0.29600900  1
  Sr  Sr1  1  0.79600900  0.20399100  0.20399100  1
  Sr  Sr2  1  0.20399100  0.20399100  0.79600900  1
  Sr  Sr3  1  0.20399100  0.79600900  0.20399100  1
  Sr  Sr4  1  0.79600900  0.79600900  0.79600900  1
  Sr  Sr5  1  0.29600900  0.70399100  0.70399100  1
  Sr  Sr6  1  0.70399100  0.70399100  0.29600900  1
  Sr  Sr7  1  0.70399100  0.29600900  0.70399100  1
  Al  Al8  1  0.50000000  0.25000000  0.00000000  1
  Al  Al9  1  0.00000000  0.25000000  0.50000000  1
  Al  Al10  1  0.50000000  0.00000000  0.25000000  1
  Al  Al11  1  0.00000000  0.50000000  0.25000000  1
  Al  Al12  1  0.25000000  0.50000000  0.00000000  1
  Al  Al13  1  0.25000000  0.00000000  0.50000000  1
  Al  Al14  1  0.00000000  0.75000000  0.50000000  1
  Al  Al15  1  0.50000000  0.75000000  0.00000000  1
  Al  Al16  1  0.00000000  0.50000000  0.75000000  1
  Al  Al17  1  0.50000000  0.00000000  0.75000000  1
  Al  Al18  1  0.75000000  0.00000000  0.50000000  1
  Al  Al19  1  0.75000000  0.50000000  0.00000000  1
  Te  Te20  1  0.00000000  0.00000000  0.00000000  1
  Te  Te21  1  0.50000000  0.50000000  0.50000000  1
  O  O22  1  0.46085750  0.84465750  0.15534250  1
  O  O23  1  0.34465750  0.34465750  0.03914250  1
  O  O24  1  0.46085750  0.15534250  0.84465750  1
  O  O25  1  0.15534250  0.46085750  0.84465750  1
  O  O26  1  0.15534250  0.53914250  0.15534250  1
  O  O27  1  0.53914250  0.15534250  0.15534250  1
  O  O28  1  0.15534250  0.15534250  0.53914250  1
  O  O29  1  0.84465750  0.15534250  0.46085750  1
  O  O30  1  0.15534250  0.84465750  0.46085750  1
  O  O31  1  0.34465750  0.03914250  0.34465750  1
  O  O32  1  0.84465750  0.46085750  0.15534250  1
  O  O33  1  0.03914250  0.34465750  0.34465750  1
  O  O34  1  0.96085750  0.34465750  0.65534250  1
  O  O35  1  0.84465750  0.84465750  0.53914250  1
  O  O36  1  0.96085750  0.65534250  0.34465750  1
  O  O37  1  0.65534250  0.96085750  0.34465750  1
  O  O38  1  0.65534250  0.03914250  0.65534250  1
  O  O39  1  0.03914250  0.65534250  0.65534250  1
  O  O40  1  0.65534250  0.65534250  0.03914250  1
  O  O41  1  0.34465750  0.65534250  0.96085750  1
  O  O42  1  0.65534250  0.34465750  0.96085750  1
  O  O43  1  0.84465750  0.53914250  0.84465750  1
  O  O44  1  0.34465750  0.96085750  0.65534250  1
  O  O45  1  0.53914250  0.84465750  0.84465750  1
