# generated using pymatgen
data_NaCa9Mg(PO4)7
_symmetry_space_group_name_H-M   'P 1'
_cell_length_a   10.44083966
_cell_length_b   10.44083966
_cell_length_c   37.41365512
_cell_angle_alpha   90.00000000
_cell_angle_beta   90.00000000
_cell_angle_gamma   120.00000000
_symmetry_Int_Tables_number   1
_chemical_formula_structural   NaCa9Mg(PO4)7
_chemical_formula_sum   'Na6 Ca54 Mg6 P42 O168'
_cell_volume   3532.08887767
_cell_formula_units_Z   6
loop_
 _symmetry_equiv_pos_site_id
 _symmetry_equiv_pos_as_xyz
  1  'x, y, z'
loop_
 _atom_site_type_symbol
 _atom_site_label
 _atom_site_symmetry_multiplicity
 _atom_site_fract_x
 _atom_site_fract_y
 _atom_site_fract_z
 _atom_site_occupancy
  Na  Na0  1  0.00000000  0.00000000  0.18625300  1
  Na  Na1  1  0.66666667  0.33333333  0.01958633  1
  Na  Na2  1  0.66666667  0.33333333  0.51958633  1
  Na  Na3  1  0.33333333  0.66666667  0.35291967  1
  Na  Na4  1  0.33333333  0.66666667  0.85291967  1
  Na  Na5  1  0.00000000  0.00000000  0.68625300  1
  Ca  Ca6  1  0.78874367  0.60100033  0.15794833  1
  Ca  Ca7  1  0.39899967  0.18774333  0.15794833  1
  Ca  Ca8  1  0.81225667  0.21125633  0.15794833  1
  Ca  Ca9  1  0.14559000  0.26766700  0.32461500  1
  Ca  Ca10  1  0.73233300  0.87792300  0.32461500  1
  Ca  Ca11  1  0.12207700  0.85441000  0.32461500  1
  Ca  Ca12  1  0.28318700  0.15766200  0.06381400  1
  Ca  Ca13  1  0.84233800  0.12552500  0.06381400  1
  Ca  Ca14  1  0.87447500  0.71681300  0.06381400  1
  Ca  Ca15  1  0.20780833  0.82432867  0.23048067  1
  Ca  Ca16  1  0.17567133  0.38347967  0.23048067  1
  Ca  Ca17  1  0.61652033  0.79219167  0.23048067  1
  Ca  Ca18  1  0.39409200  0.19082200  0.26544900  1
  Ca  Ca19  1  0.80917800  0.20327000  0.26544900  1
  Ca  Ca20  1  0.79673000  0.60590800  0.26544900  1
  Ca  Ca21  1  0.46339667  0.52415533  0.09878233  1
  Ca  Ca22  1  0.47584467  0.93924133  0.09878233  1
  Ca  Ca23  1  0.06075867  0.53660333  0.09878233  1
  Ca  Ca24  1  0.45541033  0.93433367  0.49128167  1
  Ca  Ca25  1  0.06566633  0.52107667  0.49128167  1
  Ca  Ca26  1  0.47892333  0.54458967  0.49128167  1
  Ca  Ca27  1  0.81225667  0.60100033  0.65794833  1
  Ca  Ca28  1  0.39899967  0.21125633  0.65794833  1
  Ca  Ca29  1  0.78874367  0.18774333  0.65794833  1
  Ca  Ca30  1  0.94985367  0.49099533  0.39714733  1
  Ca  Ca31  1  0.50900467  0.45885833  0.39714733  1
  Ca  Ca32  1  0.54114167  0.05014633  0.39714733  1
  Ca  Ca33  1  0.87447500  0.15766200  0.56381400  1
  Ca  Ca34  1  0.84233800  0.71681300  0.56381400  1
  Ca  Ca35  1  0.28318700  0.12552500  0.56381400  1
  Ca  Ca36  1  0.06075867  0.52415533  0.59878233  1
  Ca  Ca37  1  0.47584467  0.53660333  0.59878233  1
  Ca  Ca38  1  0.46339667  0.93924133  0.59878233  1
  Ca  Ca39  1  0.13006333  0.85748867  0.43211567  1
  Ca  Ca40  1  0.14251133  0.27257467  0.43211567  1
  Ca  Ca41  1  0.72742533  0.86993667  0.43211567  1
  Ca  Ca42  1  0.12207700  0.26766700  0.82461500  1
  Ca  Ca43  1  0.73233300  0.85441000  0.82461500  1
  Ca  Ca44  1  0.14559000  0.87792300  0.82461500  1
  Ca  Ca45  1  0.47892333  0.93433367  0.99128167  1
  Ca  Ca46  1  0.06566633  0.54458967  0.99128167  1
  Ca  Ca47  1  0.45541033  0.52107667  0.99128167  1
  Ca  Ca48  1  0.61652033  0.82432867  0.73048067  1
  Ca  Ca49  1  0.17567133  0.79219167  0.73048067  1
  Ca  Ca50  1  0.20780833  0.38347967  0.73048067  1
  Ca  Ca51  1  0.54114167  0.49099533  0.89714733  1
  Ca  Ca52  1  0.50900467  0.05014633  0.89714733  1
  Ca  Ca53  1  0.94985367  0.45885833  0.89714733  1
  Ca  Ca54  1  0.72742533  0.85748867  0.93211567  1
  Ca  Ca55  1  0.14251133  0.86993667  0.93211567  1
  Ca  Ca56  1  0.13006333  0.27257467  0.93211567  1
  Ca  Ca57  1  0.79673000  0.19082200  0.76544900  1
  Ca  Ca58  1  0.80917800  0.60590800  0.76544900  1
  Ca  Ca59  1  0.39409200  0.20327000  0.76544900  1
  Mg  Mg60  1  0.00000000  0.00000000  0.00009500  1
  Mg  Mg61  1  0.33333333  0.66666667  0.16676167  1
  Mg  Mg62  1  0.66666667  0.33333333  0.33342833  1
  Mg  Mg63  1  0.00000000  0.00000000  0.50009500  1
  Mg  Mg64  1  0.33333333  0.66666667  0.66676167  1
  Mg  Mg65  1  0.66666667  0.33333333  0.83342833  1
  P  P66  1  0.15087133  0.34431067  0.03050767  1
  P  P67  1  0.65568933  0.80656067  0.03050767  1
  P  P68  1  0.02140600  0.52945000  0.30097800  1
  P  P69  1  0.47055000  0.49195600  0.30097800  1
  P  P70  1  0.50804400  0.97859400  0.30097800  1
  P  P71  1  0.17471067  0.86278333  0.13431133  1
  P  P72  1  0.13721667  0.31192733  0.13431133  1
  P  P73  1  0.68807267  0.82528933  0.13431133  1
  P  P74  1  0.66666667  0.33333333  0.09849833  1
  P  P75  1  0.00000000  0.00000000  0.26516500  1
  P  P76  1  0.19343933  0.84912867  0.03050767  1
  P  P77  1  0.52677267  0.01097733  0.19717433  1
  P  P78  1  0.48420467  0.47322733  0.19717433  1
  P  P79  1  0.98902267  0.51579533  0.19717433  1
  P  P80  1  0.81753800  0.67764400  0.36384100  1
  P  P81  1  0.32235600  0.13989400  0.36384100  1
  P  P82  1  0.68807267  0.86278333  0.63431133  1
  P  P83  1  0.13721667  0.82528933  0.63431133  1
  P  P84  1  0.17471067  0.31192733  0.63431133  1
  P  P85  1  0.84137733  0.19611667  0.46764467  1
  P  P86  1  0.80388333  0.64526067  0.46764467  1
  P  P87  1  0.35473933  0.15862267  0.46764467  1
  P  P88  1  0.33333333  0.66666667  0.43183167  1
  P  P89  1  0.66666667  0.33333333  0.59849833  1
  P  P90  1  0.86010600  0.18246200  0.36384100  1
  P  P91  1  0.19343933  0.34431067  0.53050767  1
  P  P92  1  0.15087133  0.80656067  0.53050767  1
  P  P93  1  0.65568933  0.84912867  0.53050767  1
  P  P94  1  0.48420467  0.01097733  0.69717433  1
  P  P95  1  0.98902267  0.47322733  0.69717433  1
  P  P96  1  0.35473933  0.19611667  0.96764467  1
  P  P97  1  0.80388333  0.15862267  0.96764467  1
  P  P98  1  0.84137733  0.64526067  0.96764467  1
  P  P99  1  0.50804400  0.52945000  0.80097800  1
  P  P100  1  0.47055000  0.97859400  0.80097800  1
  P  P101  1  0.02140600  0.49195600  0.80097800  1
  P  P102  1  0.00000000  0.00000000  0.76516500  1
  P  P103  1  0.33333333  0.66666667  0.93183167  1
  P  P104  1  0.52677267  0.51579533  0.69717433  1
  P  P105  1  0.86010600  0.67764400  0.86384100  1
  P  P106  1  0.81753800  0.13989400  0.86384100  1
  P  P107  1  0.32235600  0.18246200  0.86384100  1
  O  O108  1  0.95366233  0.48551567  0.15685667  1
  O  O109  1  0.51448433  0.46814667  0.15685667  1
  O  O110  1  0.53185333  0.04633767  0.15685667  1
  O  O111  1  0.86518667  0.15218233  0.32352333  1
  O  O112  1  0.84781767  0.71300433  0.32352333  1
  O  O113  1  0.28699567  0.13481333  0.32352333  1
  O  O114  1  0.15900667  0.59019933  0.20397933  1
  O  O115  1  0.40980067  0.56880733  0.20397933  1
  O  O116  1  0.43119267  0.84099333  0.20397933  1
  O  O117  1  0.09785933  0.92353267  0.03731267  1
  O  O118  1  0.07646733  0.17432667  0.03731267  1
  O  O119  1  0.82567333  0.90214067  0.03731267  1
  O  O120  1  0.91183033  0.36561667  0.21692067  1
  O  O121  1  0.63438333  0.54621367  0.21692067  1
  O  O122  1  0.45378633  0.08816967  0.21692067  1
  O  O123  1  0.12045300  0.69895000  0.05025400  1
  O  O124  1  0.30105000  0.42150300  0.05025400  1
  O  O125  1  0.57849700  0.87954700  0.05025400  1
  O  O126  1  0.93598167  0.62360533  0.20951633  1
  O  O127  1  0.37639467  0.31237633  0.20951633  1
  O  O128  1  0.68762367  0.06401833  0.20951633  1
  O  O129  1  0.35429033  0.95693867  0.04284967  1
  O  O130  1  0.09082100  0.43918300  0.28652300  1
  O  O131  1  0.04306133  0.39735167  0.04284967  1
  O  O132  1  0.84806633  0.42782967  0.29875067  1
  O  O133  1  0.57217033  0.42023667  0.29875067  1
  O  O134  1  0.57976333  0.15193367  0.29875067  1
  O  O135  1  0.24643000  0.76116300  0.13208400  1
  O  O136  1  0.23883700  0.48526700  0.13208400  1
  O  O137  1  0.51473300  0.75357000  0.13208400  1
  O  O138  1  0.05673300  0.66876800  0.27813300  1
  O  O139  1  0.33123200  0.38796500  0.27813300  1
  O  O140  1  0.61203500  0.94326700  0.27813300  1
  O  O141  1  0.27870167  0.00210133  0.11146633  1
  O  O142  1  0.99789867  0.27660033  0.11146633  1
  O  O143  1  0.72339967  0.72129833  0.11146633  1
  O  O144  1  0.00000000  0.00000000  0.30650400  1
  O  O145  1  0.66666667  0.33333333  0.13983733  1
  O  O146  1  0.00215633  0.14182367  0.25128467  1
  O  O147  1  0.13966733  0.99784367  0.25128467  1
  O  O148  1  0.85817633  0.86033267  0.25128467  1
  O  O149  1  0.52484300  0.33117700  0.08461800  1
  O  O150  1  0.80633400  0.47515700  0.08461800  1
  O  O151  1  0.66882300  0.19366600  0.08461800  1
  O  O152  1  0.74327900  0.82323700  0.17276700  1
  O  O153  1  0.07995800  0.25672100  0.17276700  1
  O  O154  1  0.17676300  0.92004200  0.17276700  1
  O  O155  1  0.84342967  0.59005433  0.00610033  1
  O  O156  1  0.74662467  0.15657033  0.00610033  1
  O  O157  1  0.40994567  0.25337533  0.00610033  1
  O  O158  1  0.75748767  0.98497133  0.11985633  1
  O  O159  1  0.22748367  0.24251233  0.11985633  1
  O  O160  1  0.01502867  0.77251633  0.11985633  1
  O  O161  1  0.34836200  0.90917900  0.28652300  1
  O  O162  1  0.56081700  0.65163800  0.28652300  1
  O  O163  1  0.60264833  0.64570967  0.04284967  1
  O  O164  1  0.62032900  0.81884900  0.49019000  1
  O  O165  1  0.18115100  0.80148000  0.49019000  1
  O  O166  1  0.19852000  0.37967100  0.49019000  1
  O  O167  1  0.53185333  0.48551567  0.65685667  1
  O  O168  1  0.51448433  0.04633767  0.65685667  1
  O  O169  1  0.95366233  0.46814667  0.65685667  1
  O  O170  1  0.82567333  0.92353267  0.53731267  1
  O  O171  1  0.07646733  0.90214067  0.53731267  1
  O  O172  1  0.09785933  0.17432667  0.53731267  1
  O  O173  1  0.76452600  0.25686600  0.37064600  1
  O  O174  1  0.74313400  0.50766000  0.37064600  1
  O  O175  1  0.49234000  0.23547400  0.37064600  1
  O  O176  1  0.57849700  0.69895000  0.55025400  1
  O  O177  1  0.30105000  0.87954700  0.55025400  1
  O  O178  1  0.12045300  0.42150300  0.55025400  1
  O  O179  1  0.78711967  0.03228333  0.38358733  1
  O  O180  1  0.96771667  0.75483633  0.38358733  1
  O  O181  1  0.24516367  0.21288033  0.38358733  1
  O  O182  1  0.60264833  0.95693867  0.54284967  1
  O  O183  1  0.04306133  0.64570967  0.54284967  1
  O  O184  1  0.35429033  0.39735167  0.54284967  1
  O  O185  1  0.02095700  0.29027200  0.37618300  1
  O  O186  1  0.75748767  0.77251633  0.61985633  1
  O  O187  1  0.70972800  0.73068500  0.37618300  1
  O  O188  1  0.51473300  0.76116300  0.63208400  1
  O  O189  1  0.23883700  0.75357000  0.63208400  1
  O  O190  1  0.24643000  0.48526700  0.63208400  1
  O  O191  1  0.91309667  0.09449633  0.46541733  1
  O  O192  1  0.90550367  0.81860033  0.46541733  1
  O  O193  1  0.18139967  0.08690333  0.46541733  1
  O  O194  1  0.72339967  0.00210133  0.61146633  1
  O  O195  1  0.99789867  0.72129833  0.61146633  1
  O  O196  1  0.27870167  0.27660033  0.61146633  1
  O  O197  1  0.94536833  0.33543467  0.44479967  1
  O  O198  1  0.66456533  0.60993367  0.44479967  1
  O  O199  1  0.39006633  0.05463167  0.44479967  1
  O  O200  1  0.66666667  0.33333333  0.63983733  1
  O  O201  1  0.33333333  0.66666667  0.47317067  1
  O  O202  1  0.66882300  0.47515700  0.58461800  1
  O  O203  1  0.80633400  0.33117700  0.58461800  1
  O  O204  1  0.52484300  0.19366600  0.58461800  1
  O  O205  1  0.19150967  0.66451033  0.41795133  1
  O  O206  1  0.47300067  0.80849033  0.41795133  1
  O  O207  1  0.33548967  0.52699933  0.41795133  1
  O  O208  1  0.40994567  0.15657033  0.50610033  1
  O  O209  1  0.74662467  0.59005433  0.50610033  1
  O  O210  1  0.84342967  0.25337533  0.50610033  1
  O  O211  1  0.51009633  0.92338767  0.33943367  1
  O  O212  1  0.41329133  0.48990367  0.33943367  1
  O  O213  1  0.07661233  0.58670867  0.33943367  1
  O  O214  1  0.42415433  0.31830467  0.45318967  1
  O  O215  1  0.89415033  0.57584567  0.45318967  1
  O  O216  1  0.68169533  0.10584967  0.45318967  1
  O  O217  1  0.01502867  0.24251233  0.61985633  1
  O  O218  1  0.22748367  0.98497133  0.61985633  1
  O  O219  1  0.26931500  0.97904300  0.37618300  1
  O  O220  1  0.28699567  0.15218233  0.82352333  1
  O  O221  1  0.84781767  0.13481333  0.82352333  1
  O  O222  1  0.86518667  0.71300433  0.82352333  1
  O  O223  1  0.19852000  0.81884900  0.99019000  1
  O  O224  1  0.18115100  0.37967100  0.99019000  1
  O  O225  1  0.62032900  0.80148000  0.99019000  1
  O  O226  1  0.49234000  0.25686600  0.87064600  1
  O  O227  1  0.74313400  0.23547400  0.87064600  1
  O  O228  1  0.76452600  0.50766000  0.87064600  1
  O  O229  1  0.43119267  0.59019933  0.70397933  1
  O  O230  1  0.40980067  0.84099333  0.70397933  1
  O  O231  1  0.15900667  0.56880733  0.70397933  1
  O  O232  1  0.24516367  0.03228333  0.88358733  1
  O  O233  1  0.96771667  0.21288033  0.88358733  1
  O  O234  1  0.78711967  0.75483633  0.88358733  1
  O  O235  1  0.45378633  0.36561667  0.71692067  1
  O  O236  1  0.63438333  0.08816967  0.71692067  1
  O  O237  1  0.91183033  0.54621367  0.71692067  1
  O  O238  1  0.26931500  0.29027200  0.87618300  1
  O  O239  1  0.70972800  0.97904300  0.87618300  1
  O  O240  1  0.02095700  0.73068500  0.87618300  1
  O  O241  1  0.68762367  0.62360533  0.70951633  1
  O  O242  1  0.42415433  0.10584967  0.95318967  1
  O  O243  1  0.37639467  0.06401833  0.70951633  1
  O  O244  1  0.18139967  0.09449633  0.96541733  1
  O  O245  1  0.90550367  0.08690333  0.96541733  1
  O  O246  1  0.91309667  0.81860033  0.96541733  1
  O  O247  1  0.57976333  0.42782967  0.79875067  1
  O  O248  1  0.57217033  0.15193367  0.79875067  1
  O  O249  1  0.84806633  0.42023667  0.79875067  1
  O  O250  1  0.39006633  0.33543467  0.94479967  1
  O  O251  1  0.66456533  0.05463167  0.94479967  1
  O  O252  1  0.94536833  0.60993367  0.94479967  1
  O  O253  1  0.61203500  0.66876800  0.77813300  1
  O  O254  1  0.33123200  0.94326700  0.77813300  1
  O  O255  1  0.05673300  0.38796500  0.77813300  1
  O  O256  1  0.33333333  0.66666667  0.97317067  1
  O  O257  1  0.00000000  0.00000000  0.80650400  1
  O  O258  1  0.33548967  0.80849033  0.91795133  1
  O  O259  1  0.47300067  0.66451033  0.91795133  1
  O  O260  1  0.19150967  0.52699933  0.91795133  1
  O  O261  1  0.85817633  0.99784367  0.75128467  1
  O  O262  1  0.13966733  0.14182367  0.75128467  1
  O  O263  1  0.00215633  0.86033267  0.75128467  1
  O  O264  1  0.07661233  0.48990367  0.83943367  1
  O  O265  1  0.41329133  0.92338767  0.83943367  1
  O  O266  1  0.51009633  0.58670867  0.83943367  1
  O  O267  1  0.17676300  0.25672100  0.67276700  1
  O  O268  1  0.07995800  0.82323700  0.67276700  1
  O  O269  1  0.74327900  0.92004200  0.67276700  1
  O  O270  1  0.09082100  0.65163800  0.78652300  1
  O  O271  1  0.56081700  0.90917900  0.78652300  1
  O  O272  1  0.34836200  0.43918300  0.78652300  1
  O  O273  1  0.68169533  0.57584567  0.95318967  1
  O  O274  1  0.89415033  0.31830467  0.95318967  1
  O  O275  1  0.93598167  0.31237633  0.70951633  1
