# generated using pymatgen
data_TlGeCl3
_symmetry_space_group_name_H-M   'P 1'
_cell_length_a   7.58998400
_cell_length_b   7.47976600
_cell_length_c   5.32192970
_cell_angle_alpha   90.00000000
_cell_angle_beta   91.08641690
_cell_angle_gamma   90.00000000
_symmetry_Int_Tables_number   1
_chemical_formula_structural   TlGeCl3
_chemical_formula_sum   'Tl2 Ge2 Cl6'
_cell_volume   302.07857716
_cell_formula_units_Z   2
loop_
 _symmetry_equiv_pos_site_id
 _symmetry_equiv_pos_as_xyz
  1  'x, y, z'
loop_
 _atom_site_type_symbol
 _atom_site_label
 _atom_site_symmetry_multiplicity
 _atom_site_fract_x
 _atom_site_fract_y
 _atom_site_fract_z
 _atom_site_occupancy
  Tl  Tl0  1  0.01091100  0.00000000  0.00901700  1
  Tl  Tl1  1  0.51091100  0.50000000  0.00901700  1
  Ge  Ge2  1  0.51949900  0.00000000  0.46745900  1
  Ge  Ge3  1  0.01949900  0.50000000  0.46745900  1
  Cl  Cl4  1  0.74151450  0.76153350  0.47689000  1
  Cl  Cl5  1  0.49686600  0.00000000  0.00561300  1
  Cl  Cl6  1  0.74151450  0.23846650  0.47689000  1
  Cl  Cl7  1  0.24151450  0.26153350  0.47689000  1
  Cl  Cl8  1  0.99686600  0.50000000  0.00561300  1
  Cl  Cl9  1  0.24151450  0.73846650  0.47689000  1
