# generated using pymatgen
data_HgH6I3NO
_symmetry_space_group_name_H-M   'P 1'
_cell_length_a   11.19584600
_cell_length_b   9.63648400
_cell_length_c   9.04678962
_cell_angle_alpha   90.00000000
_cell_angle_beta   91.88019190
_cell_angle_gamma   90.00000000
_symmetry_Int_Tables_number   1
_chemical_formula_structural   HgH6I3NO
_chemical_formula_sum   'Hg4 H24 I12 N4 O4'
_cell_volume   975.51989945
_cell_formula_units_Z   4
loop_
 _symmetry_equiv_pos_site_id
 _symmetry_equiv_pos_as_xyz
  1  'x, y, z'
loop_
 _atom_site_type_symbol
 _atom_site_label
 _atom_site_symmetry_multiplicity
 _atom_site_fract_x
 _atom_site_fract_y
 _atom_site_fract_z
 _atom_site_occupancy
  Hg  Hg0  1  0.41801200  0.03161200  0.10449800  1
  Hg  Hg1  1  0.41801200  0.96838800  0.60449800  1
  Hg  Hg2  1  0.91801200  0.53161200  0.10449800  1
  Hg  Hg3  1  0.91801200  0.46838800  0.60449800  1
  H  H4  1  0.59475150  0.63240250  0.17088100  1
  H  H5  1  0.47240600  0.69215400  0.24985600  1
  H  H6  1  0.60755650  0.73222350  0.32452700  1
  H  H7  1  0.55415050  0.56552350  0.33882400  1
  H  H8  1  0.49016800  0.34991000  0.38562500  1
  H  H9  1  0.94185550  0.96289650  0.49172500  1
  H  H10  1  0.59475150  0.36759750  0.67088100  1
  H  H11  1  0.47240600  0.30784600  0.74985600  1
  H  H12  1  0.60755650  0.26777650  0.82452700  1
  H  H13  1  0.55415050  0.43447650  0.83882400  1
  H  H14  1  0.49016800  0.65009000  0.88562500  1
  H  H15  1  0.94185550  0.03710350  0.99172500  1
  H  H16  1  0.09475150  0.13240250  0.17088100  1
  H  H17  1  0.97240600  0.19215400  0.24985600  1
  H  H18  1  0.10755650  0.23222350  0.32452700  1
  H  H19  1  0.05415050  0.06552350  0.33882400  1
  H  H20  1  0.99016800  0.84991000  0.38562500  1
  H  H21  1  0.44185550  0.46289650  0.49172500  1
  H  H22  1  0.09475150  0.86759750  0.67088100  1
  H  H23  1  0.97240600  0.80784600  0.74985600  1
  H  H24  1  0.10755650  0.76777650  0.82452700  1
  H  H25  1  0.05415050  0.93447650  0.83882400  1
  H  H26  1  0.99016800  0.15009000  0.88562500  1
  H  H27  1  0.44185550  0.53710350  0.99172500  1
  I  I28  1  0.34311000  0.30919900  0.12774700  1
  I  I29  1  0.26474650  0.80416750  0.13629100  1
  I  I30  1  0.58560100  0.02069200  0.37360800  1
  I  I31  1  0.34311000  0.69080100  0.62774700  1
  I  I32  1  0.26474650  0.19583250  0.63629100  1
  I  I33  1  0.58560100  0.97930800  0.87360800  1
  I  I34  1  0.84311000  0.80919900  0.12774700  1
  I  I35  1  0.76474650  0.30416750  0.13629100  1
  I  I36  1  0.08560100  0.52069200  0.37360800  1
  I  I37  1  0.84311000  0.19080100  0.62774700  1
  I  I38  1  0.76474650  0.69583250  0.63629100  1
  I  I39  1  0.08560100  0.47930800  0.87360800  1
  N  N40  1  0.55852200  0.65480800  0.27143700  1
  N  N41  1  0.55852200  0.34519200  0.77143700  1
  N  N42  1  0.05852200  0.15480800  0.27143700  1
  N  N43  1  0.05852200  0.84519200  0.77143700  1
  O  O44  1  0.51652450  0.42440650  0.45328000  1
  O  O45  1  0.51652450  0.57559350  0.95328000  1
  O  O46  1  0.01652450  0.92440650  0.45328000  1
  O  O47  1  0.01652450  0.07559350  0.95328000  1
