# generated using pymatgen
data_Sr2ZnCu2(SO)2
_symmetry_space_group_name_H-M   'P 1'
_cell_length_a   4.03287000
_cell_length_b   4.03287000
_cell_length_c   17.83847800
_cell_angle_alpha   90.00000000
_cell_angle_beta   90.00000000
_cell_angle_gamma   90.00000000
_symmetry_Int_Tables_number   1
_chemical_formula_structural   Sr2ZnCu2(SO)2
_chemical_formula_sum   'Sr4 Zn2 Cu4 S4 O4'
_cell_volume   290.12572752
_cell_formula_units_Z   2
loop_
 _symmetry_equiv_pos_site_id
 _symmetry_equiv_pos_as_xyz
  1  'x, y, z'
loop_
 _atom_site_type_symbol
 _atom_site_label
 _atom_site_symmetry_multiplicity
 _atom_site_fract_x
 _atom_site_fract_y
 _atom_site_fract_z
 _atom_site_occupancy
  Sr  Sr0  1  0.50000000  0.50000000  0.09239000  1
  Sr  Sr1  1  0.00000000  0.00000000  0.40761000  1
  Sr  Sr2  1  0.00000000  0.00000000  0.59239000  1
  Sr  Sr3  1  0.50000000  0.50000000  0.90761000  1
  Zn  Zn4  1  0.00000000  0.00000000  0.00000000  1
  Zn  Zn5  1  0.50000000  0.50000000  0.50000000  1
  Cu  Cu6  1  0.50000000  0.00000000  0.25000000  1
  Cu  Cu7  1  0.00000000  0.50000000  0.25000000  1
  Cu  Cu8  1  0.00000000  0.50000000  0.75000000  1
  Cu  Cu9  1  0.50000000  0.00000000  0.75000000  1
  S  S10  1  0.50000000  0.50000000  0.32604600  1
  S  S11  1  0.00000000  0.00000000  0.17395400  1
  S  S12  1  0.00000000  0.00000000  0.82604600  1
  S  S13  1  0.50000000  0.50000000  0.67395400  1
  O  O14  1  0.50000000  0.00000000  0.00000000  1
  O  O15  1  0.00000000  0.50000000  0.00000000  1
  O  O16  1  0.00000000  0.50000000  0.50000000  1
  O  O17  1  0.50000000  0.00000000  0.50000000  1
