# generated using pymatgen
data_Sr(SnAs)2
_symmetry_space_group_name_H-M   'P 1'
_cell_length_a   4.28050357
_cell_length_b   4.28050357
_cell_length_c   27.17497549
_cell_angle_alpha   90.00000000
_cell_angle_beta   90.00000000
_cell_angle_gamma   120.00000000
_symmetry_Int_Tables_number   1
_chemical_formula_structural   Sr(SnAs)2
_chemical_formula_sum   'Sr3 Sn6 As6'
_cell_volume   431.21069125
_cell_formula_units_Z   3
loop_
 _symmetry_equiv_pos_site_id
 _symmetry_equiv_pos_as_xyz
  1  'x, y, z'
loop_
 _atom_site_type_symbol
 _atom_site_label
 _atom_site_symmetry_multiplicity
 _atom_site_fract_x
 _atom_site_fract_y
 _atom_site_fract_z
 _atom_site_occupancy
  Sr  Sr0  1  0.00000000  0.00000000  0.00000000  1
  Sr  Sr1  1  0.66666667  0.33333333  0.33333333  1
  Sr  Sr2  1  0.33333333  0.66666667  0.66666667  1
  Sn  Sn3  1  0.00000000  0.00000000  0.20988100  1
  Sn  Sn4  1  0.66666667  0.33333333  0.12345233  1
  Sn  Sn5  1  0.66666667  0.33333333  0.54321433  1
  Sn  Sn6  1  0.33333333  0.66666667  0.45678567  1
  Sn  Sn7  1  0.33333333  0.66666667  0.87654767  1
  Sn  Sn8  1  0.00000000  0.00000000  0.79011900  1
  As  As9  1  0.33333333  0.66666667  0.26048867  1
  As  As10  1  0.33333333  0.66666667  0.07284467  1
  As  As11  1  0.00000000  0.00000000  0.59382200  1
  As  As12  1  0.00000000  0.00000000  0.40617800  1
  As  As13  1  0.66666667  0.33333333  0.92715533  1
  As  As14  1  0.66666667  0.33333333  0.73951133  1
