# generated using pymatgen
data_NaCuO2
_symmetry_space_group_name_H-M   'P 1'
_cell_length_a   3.72004000
_cell_length_b   10.94381400
_cell_length_c   5.42051900
_cell_angle_alpha   90.00000000
_cell_angle_beta   90.00000000
_cell_angle_gamma   90.00000000
_symmetry_Int_Tables_number   1
_chemical_formula_structural   NaCuO2
_chemical_formula_sum   'Na4 Cu4 O8'
_cell_volume   220.67705724
_cell_formula_units_Z   4
loop_
 _symmetry_equiv_pos_site_id
 _symmetry_equiv_pos_as_xyz
  1  'x, y, z'
loop_
 _atom_site_type_symbol
 _atom_site_label
 _atom_site_symmetry_multiplicity
 _atom_site_fract_x
 _atom_site_fract_y
 _atom_site_fract_z
 _atom_site_occupancy
  Na  Na0  1  0.50000000  0.79031100  0.25000000  1
  Na  Na1  1  0.00000000  0.70968900  0.75000000  1
  Na  Na2  1  0.00000000  0.29031100  0.25000000  1
  Na  Na3  1  0.50000000  0.20968900  0.75000000  1
  Cu  Cu4  1  0.50000000  0.50333700  0.25000000  1
  Cu  Cu5  1  0.00000000  0.99666300  0.75000000  1
  Cu  Cu6  1  0.00000000  0.00333700  0.25000000  1
  Cu  Cu7  1  0.50000000  0.49666300  0.75000000  1
  O  O8  1  0.00000000  0.88550200  0.49358900  1
  O  O9  1  0.50000000  0.61449800  0.50641100  1
  O  O10  1  0.00000000  0.88550200  0.00641100  1
  O  O11  1  0.50000000  0.61449800  0.99358900  1
  O  O12  1  0.50000000  0.38550200  0.49358900  1
  O  O13  1  0.00000000  0.11449800  0.50641100  1
  O  O14  1  0.50000000  0.38550200  0.00641100  1
  O  O15  1  0.00000000  0.11449800  0.99358900  1
