# generated using pymatgen
data_AuO2F
_symmetry_space_group_name_H-M   'P 1'
_cell_length_a   6.92985600
_cell_length_b   8.54726800
_cell_length_c   4.34929400
_cell_angle_alpha   90.00000000
_cell_angle_beta   90.00000000
_cell_angle_gamma   90.00000000
_symmetry_Int_Tables_number   1
_chemical_formula_structural   AuO2F
_chemical_formula_sum   'Au4 O8 F4'
_cell_volume   257.61449616
_cell_formula_units_Z   4
loop_
 _symmetry_equiv_pos_site_id
 _symmetry_equiv_pos_as_xyz
  1  'x, y, z'
loop_
 _atom_site_type_symbol
 _atom_site_label
 _atom_site_symmetry_multiplicity
 _atom_site_fract_x
 _atom_site_fract_y
 _atom_site_fract_z
 _atom_site_occupancy
  Au  Au0  1  0.72396300  0.00000000  0.50000000  1
  Au  Au1  1  0.27603700  0.00000000  0.00000000  1
  Au  Au2  1  0.22396300  0.50000000  0.50000000  1
  Au  Au3  1  0.77603700  0.50000000  0.00000000  1
  O  O4  1  0.40673350  0.37819750  0.21734700  1
  O  O5  1  0.59326650  0.62180250  0.71734700  1
  O  O6  1  0.40673350  0.62180250  0.78265300  1
  O  O7  1  0.59326650  0.37819750  0.28265300  1
  O  O8  1  0.90673350  0.87819750  0.21734700  1
  O  O9  1  0.09326650  0.12180250  0.71734700  1
  O  O10  1  0.90673350  0.12180250  0.78265300  1
  O  O11  1  0.09326650  0.87819750  0.28265300  1
  F  F12  1  0.50000000  0.88497200  0.25000000  1
  F  F13  1  0.50000000  0.11502800  0.75000000  1
  F  F14  1  0.00000000  0.38497200  0.25000000  1
  F  F15  1  0.00000000  0.61502800  0.75000000  1
