# generated using pymatgen
data_Dy3Sb4Au3
_symmetry_space_group_name_H-M   'P 1'
_cell_length_a   9.93213400
_cell_length_b   9.93213400
_cell_length_c   9.93213400
_cell_angle_alpha   90.00000000
_cell_angle_beta   90.00000000
_cell_angle_gamma   90.00000000
_symmetry_Int_Tables_number   1
_chemical_formula_structural   Dy3Sb4Au3
_chemical_formula_sum   'Dy12 Sb16 Au12'
_cell_volume   979.77806124
_cell_formula_units_Z   4
loop_
 _symmetry_equiv_pos_site_id
 _symmetry_equiv_pos_as_xyz
  1  'x, y, z'
loop_
 _atom_site_type_symbol
 _atom_site_label
 _atom_site_symmetry_multiplicity
 _atom_site_fract_x
 _atom_site_fract_y
 _atom_site_fract_z
 _atom_site_occupancy
  Dy  Dy0  1  0.50000000  0.25000000  0.12500000  1
  Dy  Dy1  1  0.50000000  0.75000000  0.37500000  1
  Dy  Dy2  1  0.25000000  0.12500000  0.50000000  1
  Dy  Dy3  1  0.37500000  0.50000000  0.75000000  1
  Dy  Dy4  1  0.75000000  0.37500000  0.50000000  1
  Dy  Dy5  1  0.12500000  0.50000000  0.25000000  1
  Dy  Dy6  1  0.00000000  0.75000000  0.62500000  1
  Dy  Dy7  1  0.00000000  0.25000000  0.87500000  1
  Dy  Dy8  1  0.75000000  0.62500000  0.00000000  1
  Dy  Dy9  1  0.87500000  0.00000000  0.25000000  1
  Dy  Dy10  1  0.25000000  0.87500000  0.00000000  1
  Dy  Dy11  1  0.62500000  0.00000000  0.75000000  1
  Sb  Sb12  1  0.16031550  0.83968450  0.33968450  1
  Sb  Sb13  1  0.16031550  0.16031550  0.16031550  1
  Sb  Sb14  1  0.33968450  0.16031550  0.83968450  1
  Sb  Sb15  1  0.83968450  0.33968450  0.16031550  1
  Sb  Sb16  1  0.91031550  0.08968450  0.58968450  1
  Sb  Sb17  1  0.41031550  0.41031550  0.41031550  1
  Sb  Sb18  1  0.08968450  0.58968450  0.91031550  1
  Sb  Sb19  1  0.58968450  0.91031550  0.08968450  1
  Sb  Sb20  1  0.66031550  0.33968450  0.83968450  1
  Sb  Sb21  1  0.66031550  0.66031550  0.66031550  1
  Sb  Sb22  1  0.83968450  0.66031550  0.33968450  1
  Sb  Sb23  1  0.33968450  0.83968450  0.66031550  1
  Sb  Sb24  1  0.41031550  0.58968450  0.08968450  1
  Sb  Sb25  1  0.91031550  0.91031550  0.91031550  1
  Sb  Sb26  1  0.58968450  0.08968450  0.41031550  1
  Sb  Sb27  1  0.08968450  0.41031550  0.58968450  1
  Au  Au28  1  0.00000000  0.75000000  0.12500000  1
  Au  Au29  1  0.00000000  0.25000000  0.37500000  1
  Au  Au30  1  0.75000000  0.12500000  0.00000000  1
  Au  Au31  1  0.37500000  0.00000000  0.25000000  1
  Au  Au32  1  0.25000000  0.37500000  0.00000000  1
  Au  Au33  1  0.12500000  0.00000000  0.75000000  1
  Au  Au34  1  0.50000000  0.25000000  0.62500000  1
  Au  Au35  1  0.50000000  0.75000000  0.87500000  1
  Au  Au36  1  0.25000000  0.62500000  0.50000000  1
  Au  Au37  1  0.87500000  0.50000000  0.75000000  1
  Au  Au38  1  0.75000000  0.87500000  0.50000000  1
  Au  Au39  1  0.62500000  0.50000000  0.25000000  1
