# generated using pymatgen
data_Hf(TlTe)4
_symmetry_space_group_name_H-M   'P 1'
_cell_length_a   14.94600917
_cell_length_b   14.94600917
_cell_length_c   14.40158864
_cell_angle_alpha   90.00000000
_cell_angle_beta   90.00000000
_cell_angle_gamma   120.00000000
_symmetry_Int_Tables_number   1
_chemical_formula_structural   Hf(TlTe)4
_chemical_formula_sum   'Hf9 Tl36 Te36'
_cell_volume   2786.06678349
_cell_formula_units_Z   9
loop_
 _symmetry_equiv_pos_site_id
 _symmetry_equiv_pos_as_xyz
  1  'x, y, z'
loop_
 _atom_site_type_symbol
 _atom_site_label
 _atom_site_symmetry_multiplicity
 _atom_site_fract_x
 _atom_site_fract_y
 _atom_site_fract_z
 _atom_site_occupancy
  Hf  Hf0  1  0.00000000  0.00000000  0.75540800  1
  Hf  Hf1  1  0.00000000  0.00000000  0.24459200  1
  Hf  Hf2  1  0.00000000  0.00000000  0.50000000  1
  Hf  Hf3  1  0.66666667  0.33333333  0.08874133  1
  Hf  Hf4  1  0.66666667  0.33333333  0.57792533  1
  Hf  Hf5  1  0.66666667  0.33333333  0.83333333  1
  Hf  Hf6  1  0.33333333  0.66666667  0.42207467  1
  Hf  Hf7  1  0.33333333  0.66666667  0.91125867  1
  Hf  Hf8  1  0.33333333  0.66666667  0.16666667  1
  Tl  Tl9  1  0.52744867  0.92536733  0.59037833  1
  Tl  Tl10  1  0.07463267  0.60208133  0.59037833  1
  Tl  Tl11  1  0.39791867  0.47255133  0.59037833  1
  Tl  Tl12  1  0.47255133  0.07463267  0.40962167  1
  Tl  Tl13  1  0.92536733  0.39791867  0.40962167  1
  Tl  Tl14  1  0.60208133  0.52744867  0.40962167  1
  Tl  Tl15  1  0.05606633  0.77517967  0.41047767  1
  Tl  Tl16  1  0.22482033  0.28088667  0.41047767  1
  Tl  Tl17  1  0.71911333  0.94393367  0.41047767  1
  Tl  Tl18  1  0.94393367  0.22482033  0.58952233  1
  Tl  Tl19  1  0.77517967  0.71911333  0.58952233  1
  Tl  Tl20  1  0.28088667  0.05606633  0.58952233  1
  Tl  Tl21  1  0.19411533  0.25870067  0.92371167  1
  Tl  Tl22  1  0.74129933  0.93541467  0.92371167  1
  Tl  Tl23  1  0.06458533  0.80588467  0.92371167  1
  Tl  Tl24  1  0.13921800  0.40796600  0.74295500  1
  Tl  Tl25  1  0.59203400  0.73125200  0.74295500  1
  Tl  Tl26  1  0.26874800  0.86078200  0.74295500  1
  Tl  Tl27  1  0.72273300  0.10851300  0.74381100  1
  Tl  Tl28  1  0.89148700  0.61422000  0.74381100  1
  Tl  Tl29  1  0.38578000  0.27726700  0.74381100  1
  Tl  Tl30  1  0.61060033  0.55815367  0.92285567  1
  Tl  Tl31  1  0.44184633  0.05244667  0.92285567  1
  Tl  Tl32  1  0.94755333  0.38939967  0.92285567  1
  Tl  Tl33  1  0.86078200  0.59203400  0.25704500  1
  Tl  Tl34  1  0.40796600  0.26874800  0.25704500  1
  Tl  Tl35  1  0.73125200  0.13921800  0.25704500  1
  Tl  Tl36  1  0.80588467  0.74129933  0.07628833  1
  Tl  Tl37  1  0.25870067  0.06458533  0.07628833  1
  Tl  Tl38  1  0.93541467  0.19411533  0.07628833  1
  Tl  Tl39  1  0.38939967  0.44184633  0.07714433  1
  Tl  Tl40  1  0.55815367  0.94755333  0.07714433  1
  Tl  Tl41  1  0.05244667  0.61060033  0.07714433  1
  Tl  Tl42  1  0.27726700  0.89148700  0.25618900  1
  Tl  Tl43  1  0.10851300  0.38578000  0.25618900  1
  Tl  Tl44  1  0.61422000  0.72273300  0.25618900  1
  Te  Te45  1  0.28903267  0.80961533  0.51501133  1
  Te  Te46  1  0.19038467  0.47941733  0.51501133  1
  Te  Te47  1  0.52058267  0.71096733  0.51501133  1
  Te  Te48  1  0.71096733  0.19038467  0.48498867  1
  Te  Te49  1  0.80961533  0.52058267  0.48498867  1
  Te  Te50  1  0.47941733  0.28903267  0.48498867  1
  Te  Te51  1  0.13598833  0.17058767  0.62348567  1
  Te  Te52  1  0.82941233  0.96540067  0.62348567  1
  Te  Te53  1  0.03459933  0.86401167  0.62348567  1
  Te  Te54  1  0.86401167  0.82941233  0.37651433  1
  Te  Te55  1  0.17058767  0.03459933  0.37651433  1
  Te  Te56  1  0.96540067  0.13598833  0.37651433  1
  Te  Te57  1  0.95569933  0.14294867  0.84834467  1
  Te  Te58  1  0.85705133  0.81275067  0.84834467  1
  Te  Te59  1  0.18724933  0.04430067  0.84834467  1
  Te  Te60  1  0.37763400  0.52371800  0.81832200  1
  Te  Te61  1  0.47628200  0.85391600  0.81832200  1
  Te  Te62  1  0.14608400  0.62236600  0.81832200  1
  Te  Te63  1  0.80265500  0.50392100  0.95681900  1
  Te  Te64  1  0.49607900  0.29873400  0.95681900  1
  Te  Te65  1  0.70126600  0.19734500  0.95681900  1
  Te  Te66  1  0.53067833  0.16274567  0.70984767  1
  Te  Te67  1  0.83725433  0.36793267  0.70984767  1
  Te  Te68  1  0.63206733  0.46932167  0.70984767  1
  Te  Te69  1  0.62236600  0.47628200  0.18167800  1
  Te  Te70  1  0.52371800  0.14608400  0.18167800  1
  Te  Te71  1  0.85391600  0.37763400  0.18167800  1
  Te  Te72  1  0.04430067  0.85705133  0.15165533  1
  Te  Te73  1  0.14294867  0.18724933  0.15165533  1
  Te  Te74  1  0.81275067  0.95569933  0.15165533  1
  Te  Te75  1  0.46932167  0.83725433  0.29015233  1
  Te  Te76  1  0.16274567  0.63206733  0.29015233  1
  Te  Te77  1  0.36793267  0.53067833  0.29015233  1
  Te  Te78  1  0.19734500  0.49607900  0.04318100  1
  Te  Te79  1  0.50392100  0.70126600  0.04318100  1
  Te  Te80  1  0.29873400  0.80265500  0.04318100  1
