# generated using pymatgen
data_CdSeO3
_symmetry_space_group_name_H-M   'P 1'
_cell_length_a   5.37756900
_cell_length_b   6.42439900
_cell_length_c   8.31644600
_cell_angle_alpha   90.00000000
_cell_angle_beta   90.00000000
_cell_angle_gamma   90.00000000
_symmetry_Int_Tables_number   1
_chemical_formula_structural   CdSeO3
_chemical_formula_sum   'Cd4 Se4 O12'
_cell_volume   287.31365655
_cell_formula_units_Z   4
loop_
 _symmetry_equiv_pos_site_id
 _symmetry_equiv_pos_as_xyz
  1  'x, y, z'
loop_
 _atom_site_type_symbol
 _atom_site_label
 _atom_site_symmetry_multiplicity
 _atom_site_fract_x
 _atom_site_fract_y
 _atom_site_fract_z
 _atom_site_occupancy
  Cd  Cd0  1  0.00000000  0.00000000  0.50000000  1
  Cd  Cd1  1  0.50000000  0.50000000  0.50000000  1
  Cd  Cd2  1  0.50000000  0.50000000  0.00000000  1
  Cd  Cd3  1  0.00000000  0.00000000  0.00000000  1
  Se  Se4  1  0.48355300  0.96816200  0.75000000  1
  Se  Se5  1  0.98355300  0.53183800  0.25000000  1
  Se  Se6  1  0.01644700  0.46816200  0.75000000  1
  Se  Se7  1  0.51644700  0.03183800  0.25000000  1
  O  O8  1  0.63205700  0.17626400  0.41201700  1
  O  O9  1  0.13205700  0.32373600  0.58798300  1
  O  O10  1  0.86794300  0.67626400  0.08798300  1
  O  O11  1  0.36794300  0.82373600  0.91201700  1
  O  O12  1  0.36794300  0.82373600  0.58798300  1
  O  O13  1  0.86794300  0.67626400  0.41201700  1
  O  O14  1  0.13205700  0.32373600  0.91201700  1
  O  O15  1  0.63205700  0.17626400  0.08798300  1
  O  O16  1  0.20173300  0.09233700  0.25000000  1
  O  O17  1  0.70173300  0.40766300  0.75000000  1
  O  O18  1  0.29826700  0.59233700  0.25000000  1
  O  O19  1  0.79826700  0.90766300  0.75000000  1
