# generated using pymatgen
data_HfTlCuS3
_symmetry_space_group_name_H-M   'P 1'
_cell_length_a   3.71095600
_cell_length_b   14.40749400
_cell_length_c   9.75999700
_cell_angle_alpha   90.00000000
_cell_angle_beta   90.00000000
_cell_angle_gamma   90.00000000
_symmetry_Int_Tables_number   1
_chemical_formula_structural   HfTlCuS3
_chemical_formula_sum   'Hf4 Tl4 Cu4 S12'
_cell_volume   521.82386433
_cell_formula_units_Z   4
loop_
 _symmetry_equiv_pos_site_id
 _symmetry_equiv_pos_as_xyz
  1  'x, y, z'
loop_
 _atom_site_type_symbol
 _atom_site_label
 _atom_site_symmetry_multiplicity
 _atom_site_fract_x
 _atom_site_fract_y
 _atom_site_fract_z
 _atom_site_occupancy
  Hf  Hf0  1  0.00000000  0.00000000  0.00000000  1
  Hf  Hf1  1  0.00000000  0.00000000  0.50000000  1
  Hf  Hf2  1  0.50000000  0.50000000  0.00000000  1
  Hf  Hf3  1  0.50000000  0.50000000  0.50000000  1
  Tl  Tl4  1  0.00000000  0.25565300  0.75000000  1
  Tl  Tl5  1  0.50000000  0.24434700  0.25000000  1
  Tl  Tl6  1  0.50000000  0.75565300  0.75000000  1
  Tl  Tl7  1  0.00000000  0.74434700  0.25000000  1
  Cu  Cu8  1  0.00000000  0.46186500  0.25000000  1
  Cu  Cu9  1  0.50000000  0.03813500  0.75000000  1
  Cu  Cu10  1  0.50000000  0.96186500  0.25000000  1
  Cu  Cu11  1  0.00000000  0.53813500  0.75000000  1
  S  S12  1  0.00000000  0.38032000  0.04836700  1
  S  S13  1  0.50000000  0.11968000  0.95163300  1
  S  S14  1  0.50000000  0.11968000  0.54836700  1
  S  S15  1  0.00000000  0.06057900  0.25000000  1
  S  S16  1  0.50000000  0.43942100  0.75000000  1
  S  S17  1  0.00000000  0.38032000  0.45163300  1
  S  S18  1  0.50000000  0.88032000  0.04836700  1
  S  S19  1  0.00000000  0.61968000  0.95163300  1
  S  S20  1  0.00000000  0.61968000  0.54836700  1
  S  S21  1  0.50000000  0.56057900  0.25000000  1
  S  S22  1  0.00000000  0.93942100  0.75000000  1
  S  S23  1  0.50000000  0.88032000  0.45163300  1
