# generated using pymatgen
data_Nb4Ag2O11
_symmetry_space_group_name_H-M   'P 1'
_cell_length_a   6.26166221
_cell_length_b   6.26166221
_cell_length_c   38.22026697
_cell_angle_alpha   90.00000000
_cell_angle_beta   90.00000000
_cell_angle_gamma   120.00000000
_symmetry_Int_Tables_number   1
_chemical_formula_structural   Nb4Ag2O11
_chemical_formula_sum   'Nb24 Ag12 O66'
_cell_volume   1297.78759607
_cell_formula_units_Z   6
loop_
 _symmetry_equiv_pos_site_id
 _symmetry_equiv_pos_as_xyz
  1  'x, y, z'
loop_
 _atom_site_type_symbol
 _atom_site_label
 _atom_site_symmetry_multiplicity
 _atom_site_fract_x
 _atom_site_fract_y
 _atom_site_fract_z
 _atom_site_occupancy
  Nb  Nb0  1  0.66666667  0.33333333  0.32939633  1
  Nb  Nb1  1  0.33333333  0.66666667  0.16272967  1
  Nb  Nb2  1  0.29616500  0.32924200  0.08185100  1
  Nb  Nb3  1  0.67075800  0.96692300  0.08185100  1
  Nb  Nb4  1  0.03307700  0.70383500  0.08185100  1
  Nb  Nb5  1  0.36641033  0.99590867  0.24851767  1
  Nb  Nb6  1  0.62949833  0.63358967  0.24851767  1
  Nb  Nb7  1  0.00409133  0.37050167  0.24851767  1
  Nb  Nb8  1  0.33333333  0.66666667  0.66272967  1
  Nb  Nb9  1  0.00000000  0.00000000  0.49606300  1
  Nb  Nb10  1  0.96283167  0.66257533  0.41518433  1
  Nb  Nb11  1  0.33742467  0.30025633  0.41518433  1
  Nb  Nb12  1  0.69974367  0.03716833  0.41518433  1
  Nb  Nb13  1  0.03307700  0.32924200  0.58185100  1
  Nb  Nb14  1  0.29616500  0.96692300  0.58185100  1
  Nb  Nb15  1  0.67075800  0.70383500  0.58185100  1
  Nb  Nb16  1  0.00000000  0.00000000  0.99606300  1
  Nb  Nb17  1  0.66666667  0.33333333  0.82939633  1
  Nb  Nb18  1  0.62949833  0.99590867  0.74851767  1
  Nb  Nb19  1  0.00409133  0.63358967  0.74851767  1
  Nb  Nb20  1  0.36641033  0.37050167  0.74851767  1
  Nb  Nb21  1  0.69974367  0.66257533  0.91518433  1
  Nb  Nb22  1  0.96283167  0.30025633  0.91518433  1
  Nb  Nb23  1  0.33742467  0.03716833  0.91518433  1
  Ag  Ag24  1  0.66666667  0.33333333  0.00471633  1
  Ag  Ag25  1  0.00000000  0.00000000  0.17138300  1
  Ag  Ag26  1  0.66666667  0.33333333  0.15942433  1
  Ag  Ag27  1  0.00000000  0.00000000  0.32609100  1
  Ag  Ag28  1  0.33333333  0.66666667  0.33804967  1
  Ag  Ag29  1  0.66666667  0.33333333  0.50471633  1
  Ag  Ag30  1  0.33333333  0.66666667  0.49275767  1
  Ag  Ag31  1  0.66666667  0.33333333  0.65942433  1
  Ag  Ag32  1  0.00000000  0.00000000  0.67138300  1
  Ag  Ag33  1  0.33333333  0.66666667  0.83804967  1
  Ag  Ag34  1  0.00000000  0.00000000  0.82609100  1
  Ag  Ag35  1  0.33333333  0.66666667  0.99275767  1
  O  O36  1  0.24979233  0.26917667  0.03321967  1
  O  O37  1  0.73082333  0.98061567  0.03321967  1
  O  O38  1  0.01938433  0.75020767  0.03321967  1
  O  O39  1  0.35271767  0.93584333  0.19988633  1
  O  O40  1  0.58312567  0.64728233  0.19988633  1
  O  O41  1  0.06415667  0.41687433  0.19988633  1
  O  O42  1  0.66666667  0.33333333  0.24035333  1
  O  O43  1  0.33333333  0.66666667  0.07368667  1
  O  O44  1  0.33333333  0.66666667  0.26350567  1
  O  O45  1  0.00000000  0.00000000  0.09683900  1
  O  O46  1  0.92356967  0.33608133  0.08490533  1
  O  O47  1  0.66391867  0.58748833  0.08490533  1
  O  O48  1  0.41251167  0.07643033  0.08490533  1
  O  O49  1  0.74584500  0.00274800  0.25157200  1
  O  O50  1  0.25690300  0.25415500  0.25157200  1
  O  O51  1  0.99725200  0.74309700  0.25157200  1
  O  O52  1  0.60710367  0.92273233  0.13779233  1
  O  O53  1  0.07726767  0.68437133  0.13779233  1
  O  O54  1  0.31562867  0.39289633  0.13779233  1
  O  O55  1  0.64896200  0.58939900  0.30445900  1
  O  O56  1  0.94043700  0.35103800  0.30445900  1
  O  O57  1  0.41060100  0.05956300  0.30445900  1
  O  O58  1  0.91645900  0.60251000  0.36655300  1
  O  O59  1  0.39749000  0.31394900  0.36655300  1
  O  O60  1  0.68605100  0.08354100  0.36655300  1
  O  O61  1  0.01938433  0.26917667  0.53321967  1
  O  O62  1  0.24979233  0.98061567  0.53321967  1
  O  O63  1  0.73082333  0.75020767  0.53321967  1
  O  O64  1  0.33333333  0.66666667  0.57368667  1
  O  O65  1  0.00000000  0.00000000  0.40702000  1
  O  O66  1  0.00000000  0.00000000  0.59683900  1
  O  O67  1  0.66666667  0.33333333  0.43017233  1
  O  O68  1  0.59023633  0.66941467  0.41823867  1
  O  O69  1  0.33058533  0.92082167  0.41823867  1
  O  O70  1  0.07917833  0.40976367  0.41823867  1
  O  O71  1  0.41251167  0.33608133  0.58490533  1
  O  O72  1  0.92356967  0.58748833  0.58490533  1
  O  O73  1  0.66391867  0.07643033  0.58490533  1
  O  O74  1  0.27377033  0.25606567  0.47112567  1
  O  O75  1  0.74393433  0.01770467  0.47112567  1
  O  O76  1  0.98229533  0.72622967  0.47112567  1
  O  O77  1  0.31562867  0.92273233  0.63779233  1
  O  O78  1  0.60710367  0.68437133  0.63779233  1
  O  O79  1  0.07726767  0.39289633  0.63779233  1
  O  O80  1  0.58312567  0.93584333  0.69988633  1
  O  O81  1  0.06415667  0.64728233  0.69988633  1
  O  O82  1  0.35271767  0.41687433  0.69988633  1
  O  O83  1  0.68605100  0.60251000  0.86655300  1
  O  O84  1  0.91645900  0.31394900  0.86655300  1
  O  O85  1  0.39749000  0.08354100  0.86655300  1
  O  O86  1  0.00000000  0.00000000  0.90702000  1
  O  O87  1  0.66666667  0.33333333  0.74035333  1
  O  O88  1  0.66666667  0.33333333  0.93017233  1
  O  O89  1  0.33333333  0.66666667  0.76350567  1
  O  O90  1  0.25690300  0.00274800  0.75157200  1
  O  O91  1  0.99725200  0.25415500  0.75157200  1
  O  O92  1  0.74584500  0.74309700  0.75157200  1
  O  O93  1  0.07917833  0.66941467  0.91823867  1
  O  O94  1  0.59023633  0.92082167  0.91823867  1
  O  O95  1  0.33058533  0.40976367  0.91823867  1
  O  O96  1  0.94043700  0.58939900  0.80445900  1
  O  O97  1  0.41060100  0.35103800  0.80445900  1
  O  O98  1  0.64896200  0.05956300  0.80445900  1
  O  O99  1  0.98229533  0.25606567  0.97112567  1
  O  O100  1  0.27377033  0.01770467  0.97112567  1
  O  O101  1  0.74393433  0.72622967  0.97112567  1
