# generated using pymatgen
data_SrReN3
_symmetry_space_group_name_H-M   'P 1'
_cell_length_a   11.11491600
_cell_length_b   10.53041800
_cell_length_c   6.28829696
_cell_angle_alpha   90.00000000
_cell_angle_beta   107.49813355
_cell_angle_gamma   90.00000000
_symmetry_Int_Tables_number   1
_chemical_formula_structural   SrReN3
_chemical_formula_sum   'Sr8 Re8 N24'
_cell_volume   701.95423813
_cell_formula_units_Z   8
loop_
 _symmetry_equiv_pos_site_id
 _symmetry_equiv_pos_as_xyz
  1  'x, y, z'
loop_
 _atom_site_type_symbol
 _atom_site_label
 _atom_site_symmetry_multiplicity
 _atom_site_fract_x
 _atom_site_fract_y
 _atom_site_fract_z
 _atom_site_occupancy
  Sr  Sr0  1  0.00000000  0.68643600  0.75000000  1
  Sr  Sr1  1  0.00000000  0.09201200  0.75000000  1
  Sr  Sr2  1  0.00000000  0.90798800  0.25000000  1
  Sr  Sr3  1  0.00000000  0.31356400  0.25000000  1
  Sr  Sr4  1  0.50000000  0.18643600  0.75000000  1
  Sr  Sr5  1  0.50000000  0.59201200  0.75000000  1
  Sr  Sr6  1  0.50000000  0.40798800  0.25000000  1
  Sr  Sr7  1  0.50000000  0.81356400  0.25000000  1
  Re  Re8  1  0.21035350  0.41447750  0.74650300  1
  Re  Re9  1  0.78964650  0.41447750  0.75349700  1
  Re  Re10  1  0.21035350  0.58552250  0.24650300  1
  Re  Re11  1  0.78964650  0.58552250  0.25349700  1
  Re  Re12  1  0.71035350  0.91447750  0.74650300  1
  Re  Re13  1  0.28964650  0.91447750  0.75349700  1
  Re  Re14  1  0.71035350  0.08552250  0.24650300  1
  Re  Re15  1  0.28964650  0.08552250  0.25349700  1
  N  N16  1  0.37679900  0.60891900  0.33377900  1
  N  N17  1  0.86462900  0.73216700  0.33214100  1
  N  N18  1  0.84415050  0.51384950  0.01693500  1
  N  N19  1  0.86462900  0.26783300  0.83214100  1
  N  N20  1  0.13537100  0.26783300  0.66785900  1
  N  N21  1  0.62320100  0.39108100  0.66622100  1
  N  N22  1  0.37679900  0.39108100  0.83377900  1
  N  N23  1  0.84415050  0.48615050  0.51693500  1
  N  N24  1  0.15584950  0.51384950  0.48306500  1
  N  N25  1  0.62320100  0.60891900  0.16622100  1
  N  N26  1  0.13537100  0.73216700  0.16785900  1
  N  N27  1  0.15584950  0.48615050  0.98306500  1
  N  N28  1  0.87679900  0.10891900  0.33377900  1
  N  N29  1  0.36462900  0.23216700  0.33214100  1
  N  N30  1  0.34415050  0.01384950  0.01693500  1
  N  N31  1  0.36462900  0.76783300  0.83214100  1
  N  N32  1  0.63537100  0.76783300  0.66785900  1
  N  N33  1  0.12320100  0.89108100  0.66622100  1
  N  N34  1  0.87679900  0.89108100  0.83377900  1
  N  N35  1  0.34415050  0.98615050  0.51693500  1
  N  N36  1  0.65584950  0.01384950  0.48306500  1
  N  N37  1  0.12320100  0.10891900  0.16622100  1
  N  N38  1  0.63537100  0.23216700  0.16785900  1
  N  N39  1  0.65584950  0.98615050  0.98306500  1
