# generated using pymatgen
data_Al(HO)3
_symmetry_space_group_name_H-M   'P 1'
_cell_length_a   5.07803100
_cell_length_b   5.13568600
_cell_length_c   7.25055200
_cell_angle_alpha   90.00000000
_cell_angle_beta   90.00000000
_cell_angle_gamma   90.00000000
_symmetry_Int_Tables_number   1
_chemical_formula_structural   Al(HO)3
_chemical_formula_sum   'Al4 H12 O12'
_cell_volume   189.08839788
_cell_formula_units_Z   4
loop_
 _symmetry_equiv_pos_site_id
 _symmetry_equiv_pos_as_xyz
  1  'x, y, z'
loop_
 _atom_site_type_symbol
 _atom_site_label
 _atom_site_symmetry_multiplicity
 _atom_site_fract_x
 _atom_site_fract_y
 _atom_site_fract_z
 _atom_site_occupancy
  Al  Al0  1  0.24783900  0.00003200  0.49966000  1
  Al  Al1  1  0.25216100  0.99996800  0.99966000  1
  Al  Al2  1  0.74783900  0.49996800  0.50034000  1
  Al  Al3  1  0.75216100  0.50003200  0.00034000  1
  H  H4  1  0.02963500  0.20493100  0.75297800  1
  H  H5  1  0.08189100  0.33284300  0.29513500  1
  H  H6  1  0.21612600  0.46099100  0.02069300  1
  H  H7  1  0.28387400  0.53900900  0.52069300  1
  H  H8  1  0.41810900  0.66715700  0.79513500  1
  H  H9  1  0.47036500  0.79506900  0.25297800  1
  H  H10  1  0.52963500  0.29506900  0.24702200  1
  H  H11  1  0.58189100  0.16715700  0.70486500  1
  H  H12  1  0.71612600  0.03900900  0.97930700  1
  H  H13  1  0.78387400  0.96099100  0.47930700  1
  H  H14  1  0.91810900  0.83284300  0.20486500  1
  H  H15  1  0.97036500  0.70493100  0.74702200  1
  O  O16  1  0.07391600  0.31995500  0.43301800  1
  O  O17  1  0.08761000  0.32366400  0.06040900  1
  O  O18  1  0.12926500  0.03796700  0.75014000  1
  O  O19  1  0.37073500  0.96203300  0.25014000  1
  O  O20  1  0.41239000  0.67633600  0.56040900  1
  O  O21  1  0.42608400  0.68004500  0.93301800  1
  O  O22  1  0.57391600  0.18004500  0.56698200  1
  O  O23  1  0.58761000  0.17633600  0.93959100  1
  O  O24  1  0.62926500  0.46203300  0.24986000  1
  O  O25  1  0.87073500  0.53796700  0.74986000  1
  O  O26  1  0.91239000  0.82366400  0.43959100  1
  O  O27  1  0.92608400  0.81995500  0.06698200  1
