# generated using pymatgen
data_DyP5
_symmetry_space_group_name_H-M   'P 1'
_cell_length_a   4.95273600
_cell_length_b   9.42952700
_cell_length_c   5.35742070
_cell_angle_alpha   90.00000000
_cell_angle_beta   102.21745447
_cell_angle_gamma   90.00000000
_symmetry_Int_Tables_number   1
_chemical_formula_structural   DyP5
_chemical_formula_sum   'Dy2 P10'
_cell_volume   244.53532749
_cell_formula_units_Z   2
loop_
 _symmetry_equiv_pos_site_id
 _symmetry_equiv_pos_as_xyz
  1  'x, y, z'
loop_
 _atom_site_type_symbol
 _atom_site_label
 _atom_site_symmetry_multiplicity
 _atom_site_fract_x
 _atom_site_fract_y
 _atom_site_fract_z
 _atom_site_occupancy
  Dy  Dy0  1  0.00408100  0.75000000  0.34673600  1
  Dy  Dy1  1  0.99591900  0.25000000  0.65326400  1
  P  P2  1  0.27589400  0.75000000  0.89309900  1
  P  P3  1  0.72410600  0.25000000  0.10690100  1
  P  P4  1  0.61618500  0.59263000  0.95543300  1
  P  P5  1  0.38381500  0.09263000  0.04456700  1
  P  P6  1  0.38381500  0.40737000  0.04456700  1
  P  P7  1  0.61618500  0.90737000  0.95543300  1
  P  P8  1  0.71426800  0.52872800  0.59501700  1
  P  P9  1  0.28573200  0.02872800  0.40498300  1
  P  P10  1  0.28573200  0.47127200  0.40498300  1
  P  P11  1  0.71426800  0.97127200  0.59501700  1
