# generated using pymatgen
data_Ba3(AsO4)2
_symmetry_space_group_name_H-M   'P 1'
_cell_length_a   5.88147183
_cell_length_b   5.88147183
_cell_length_c   21.61160629
_cell_angle_alpha   90.00000000
_cell_angle_beta   90.00000000
_cell_angle_gamma   120.00000000
_symmetry_Int_Tables_number   1
_chemical_formula_structural   Ba3(AsO4)2
_chemical_formula_sum   'Ba9 As6 O24'
_cell_volume   647.42538095
_cell_formula_units_Z   3
loop_
 _symmetry_equiv_pos_site_id
 _symmetry_equiv_pos_as_xyz
  1  'x, y, z'
loop_
 _atom_site_type_symbol
 _atom_site_label
 _atom_site_symmetry_multiplicity
 _atom_site_fract_x
 _atom_site_fract_y
 _atom_site_fract_z
 _atom_site_occupancy
  Ba  Ba0  1  0.66666667  0.33333333  0.12636433  1
  Ba  Ba1  1  0.00000000  0.00000000  0.20696900  1
  Ba  Ba2  1  0.00000000  0.00000000  0.00000000  1
  Ba  Ba3  1  0.33333333  0.66666667  0.45969767  1
  Ba  Ba4  1  0.66666667  0.33333333  0.54030233  1
  Ba  Ba5  1  0.66666667  0.33333333  0.33333333  1
  Ba  Ba6  1  0.00000000  0.00000000  0.79303100  1
  Ba  Ba7  1  0.33333333  0.66666667  0.87363567  1
  Ba  Ba8  1  0.33333333  0.66666667  0.66666667  1
  As  As9  1  0.33333333  0.66666667  0.25944967  1
  As  As10  1  0.33333333  0.66666667  0.07388367  1
  As  As11  1  0.00000000  0.00000000  0.59278300  1
  As  As12  1  0.00000000  0.00000000  0.40721700  1
  As  As13  1  0.66666667  0.33333333  0.92611633  1
  As  As14  1  0.66666667  0.33333333  0.74055033  1
  O  O15  1  0.66666667  0.33333333  0.00551133  1
  O  O16  1  0.00000000  0.00000000  0.32782200  1
  O  O17  1  0.49353967  0.98707933  0.23265433  1
  O  O18  1  0.01292067  0.50646033  0.23265433  1
  O  O19  1  0.49353967  0.50646033  0.23265433  1
  O  O20  1  0.65374600  0.82687300  0.10067900  1
  O  O21  1  0.17312700  0.34625400  0.10067900  1
  O  O22  1  0.17312700  0.82687300  0.10067900  1
  O  O23  1  0.33333333  0.66666667  0.33884467  1
  O  O24  1  0.66666667  0.33333333  0.66115533  1
  O  O25  1  0.16020633  0.32041267  0.56598767  1
  O  O26  1  0.67958733  0.83979367  0.56598767  1
  O  O27  1  0.16020633  0.83979367  0.56598767  1
  O  O28  1  0.32041267  0.16020633  0.43401233  1
  O  O29  1  0.83979367  0.67958733  0.43401233  1
  O  O30  1  0.83979367  0.16020633  0.43401233  1
  O  O31  1  0.00000000  0.00000000  0.67217800  1
  O  O32  1  0.33333333  0.66666667  0.99448867  1
  O  O33  1  0.82687300  0.65374600  0.89932100  1
  O  O34  1  0.34625400  0.17312700  0.89932100  1
  O  O35  1  0.82687300  0.17312700  0.89932100  1
  O  O36  1  0.98707933  0.49353967  0.76734567  1
  O  O37  1  0.50646033  0.01292067  0.76734567  1
  O  O38  1  0.50646033  0.49353967  0.76734567  1
