# generated using pymatgen
data_La(PO3)3
_symmetry_space_group_name_H-M   'P 1'
_cell_length_a   8.74409000
_cell_length_b   11.41524800
_cell_length_c   7.49946200
_cell_angle_alpha   90.00000000
_cell_angle_beta   90.00000000
_cell_angle_gamma   90.00000000
_symmetry_Int_Tables_number   1
_chemical_formula_structural   La(PO3)3
_chemical_formula_sum   'La4 P12 O36'
_cell_volume   748.56596815
_cell_formula_units_Z   4
loop_
 _symmetry_equiv_pos_site_id
 _symmetry_equiv_pos_as_xyz
  1  'x, y, z'
loop_
 _atom_site_type_symbol
 _atom_site_label
 _atom_site_symmetry_multiplicity
 _atom_site_fract_x
 _atom_site_fract_y
 _atom_site_fract_z
 _atom_site_occupancy
  La  La0  1  0.87051900  0.00000000  0.00000000  1
  La  La1  1  0.12948100  0.00000000  0.50000000  1
  La  La2  1  0.37051900  0.50000000  0.00000000  1
  La  La3  1  0.62948100  0.50000000  0.50000000  1
  P  P4  1  0.50663950  0.17523950  0.04839700  1
  P  P5  1  0.49336050  0.82476050  0.54839700  1
  P  P6  1  0.50663950  0.82476050  0.95160300  1
  P  P7  1  0.49336050  0.17523950  0.45160300  1
  P  P8  1  0.25151500  0.00000000  0.00000000  1
  P  P9  1  0.74848500  0.00000000  0.50000000  1
  P  P10  1  0.00663950  0.67523950  0.04839700  1
  P  P11  1  0.99336050  0.32476050  0.54839700  1
  P  P12  1  0.00663950  0.32476050  0.95160300  1
  P  P13  1  0.99336050  0.67523950  0.45160300  1
  P  P14  1  0.75151500  0.50000000  0.00000000  1
  P  P15  1  0.24848500  0.50000000  0.50000000  1
  O  O16  1  0.36053850  0.10871550  0.96164300  1
  O  O17  1  0.63946150  0.89128450  0.46164300  1
  O  O18  1  0.36053850  0.89128450  0.03835700  1
  O  O19  1  0.63946150  0.10871550  0.53835700  1
  O  O20  1  0.64942550  0.87229050  0.03416200  1
  O  O21  1  0.35057450  0.12770950  0.53416200  1
  O  O22  1  0.64942550  0.12770950  0.96583800  1
  O  O23  1  0.35057450  0.87229050  0.46583800  1
  O  O24  1  0.50000000  0.12705400  0.25000000  1
  O  O25  1  0.50000000  0.87294600  0.75000000  1
  O  O26  1  0.84435850  0.01754250  0.33375200  1
  O  O27  1  0.15564150  0.98245750  0.83375200  1
  O  O28  1  0.84435850  0.98245750  0.66624800  1
  O  O29  1  0.15564150  0.01754250  0.16624800  1
  O  O30  1  0.52498950  0.30348850  0.46136900  1
  O  O31  1  0.47501050  0.69651150  0.96136900  1
  O  O32  1  0.52498950  0.69651150  0.53863100  1
  O  O33  1  0.47501050  0.30348850  0.03863100  1
  O  O34  1  0.86053850  0.60871550  0.96164300  1
  O  O35  1  0.13946150  0.39128450  0.46164300  1
  O  O36  1  0.86053850  0.39128450  0.03835700  1
  O  O37  1  0.13946150  0.60871550  0.53835700  1
  O  O38  1  0.14942550  0.37229050  0.03416200  1
  O  O39  1  0.85057450  0.62770950  0.53416200  1
  O  O40  1  0.14942550  0.62770950  0.96583800  1
  O  O41  1  0.85057450  0.37229050  0.46583800  1
  O  O42  1  0.00000000  0.62705400  0.25000000  1
  O  O43  1  0.00000000  0.37294600  0.75000000  1
  O  O44  1  0.34435850  0.51754250  0.33375200  1
  O  O45  1  0.65564150  0.48245750  0.83375200  1
  O  O46  1  0.34435850  0.48245750  0.66624800  1
  O  O47  1  0.65564150  0.51754250  0.16624800  1
  O  O48  1  0.02498950  0.80348850  0.46136900  1
  O  O49  1  0.97501050  0.19651150  0.96136900  1
  O  O50  1  0.02498950  0.19651150  0.53863100  1
  O  O51  1  0.97501050  0.80348850  0.03863100  1
