# generated using pymatgen
data_Ac2S3
_symmetry_space_group_name_H-M   'P 1'
_cell_length_a   7.61774976
_cell_length_b   7.61774976
_cell_length_c   19.62703325
_cell_angle_alpha   90.00000000
_cell_angle_beta   90.00000000
_cell_angle_gamma   120.00000000
_symmetry_Int_Tables_number   1
_chemical_formula_structural   Ac2S3
_chemical_formula_sum   'Ac12 S18'
_cell_volume   986.36736359
_cell_formula_units_Z   6
loop_
 _symmetry_equiv_pos_site_id
 _symmetry_equiv_pos_as_xyz
  1  'x, y, z'
loop_
 _atom_site_type_symbol
 _atom_site_label
 _atom_site_symmetry_multiplicity
 _atom_site_fract_x
 _atom_site_fract_y
 _atom_site_fract_z
 _atom_site_occupancy
  Ac  Ac0  1  0.33333333  0.66666667  0.02319767  1
  Ac  Ac1  1  0.00000000  0.00000000  0.14346900  1
  Ac  Ac2  1  0.66666667  0.33333333  0.18986433  1
  Ac  Ac3  1  0.33333333  0.66666667  0.31013567  1
  Ac  Ac4  1  0.00000000  0.00000000  0.35653100  1
  Ac  Ac5  1  0.66666667  0.33333333  0.47680233  1
  Ac  Ac6  1  0.33333333  0.66666667  0.52319767  1
  Ac  Ac7  1  0.00000000  0.00000000  0.64346900  1
  Ac  Ac8  1  0.66666667  0.33333333  0.68986433  1
  Ac  Ac9  1  0.33333333  0.66666667  0.81013567  1
  Ac  Ac10  1  0.00000000  0.00000000  0.85653100  1
  Ac  Ac11  1  0.66666667  0.33333333  0.97680233  1
  S  S12  1  0.95579967  0.33333333  0.08333333  1
  S  S13  1  0.37753367  0.04420033  0.08333333  1
  S  S14  1  0.66666667  0.62246633  0.08333333  1
  S  S15  1  0.00000000  0.71086700  0.25000000  1
  S  S16  1  0.28913300  0.28913300  0.25000000  1
  S  S17  1  0.71086700  0.00000000  0.25000000  1
  S  S18  1  0.62246633  0.66666667  0.41666667  1
  S  S19  1  0.04420033  0.37753367  0.41666667  1
  S  S20  1  0.33333333  0.95579967  0.41666667  1
  S  S21  1  0.66666667  0.04420033  0.58333333  1
  S  S22  1  0.95579967  0.62246633  0.58333333  1
  S  S23  1  0.37753367  0.33333333  0.58333333  1
  S  S24  1  0.28913300  0.00000000  0.75000000  1
  S  S25  1  0.71086700  0.71086700  0.75000000  1
  S  S26  1  0.00000000  0.28913300  0.75000000  1
  S  S27  1  0.33333333  0.37753367  0.91666667  1
  S  S28  1  0.62246633  0.95579967  0.91666667  1
  S  S29  1  0.04420033  0.66666667  0.91666667  1
