# generated using pymatgen
data_RbTcO4
_symmetry_space_group_name_H-M   'P 1'
_cell_length_a   5.90682800
_cell_length_b   5.90682800
_cell_length_c   13.66759200
_cell_angle_alpha   90.00000000
_cell_angle_beta   90.00000000
_cell_angle_gamma   90.00000000
_symmetry_Int_Tables_number   1
_chemical_formula_structural   RbTcO4
_chemical_formula_sum   'Rb4 Tc4 O16'
_cell_volume   476.87071808
_cell_formula_units_Z   4
loop_
 _symmetry_equiv_pos_site_id
 _symmetry_equiv_pos_as_xyz
  1  'x, y, z'
loop_
 _atom_site_type_symbol
 _atom_site_label
 _atom_site_symmetry_multiplicity
 _atom_site_fract_x
 _atom_site_fract_y
 _atom_site_fract_z
 _atom_site_occupancy
  Rb  Rb0  1  0.00000000  0.50000000  0.25000000  1
  Rb  Rb1  1  0.00000000  0.00000000  0.00000000  1
  Rb  Rb2  1  0.50000000  0.00000000  0.75000000  1
  Rb  Rb3  1  0.50000000  0.50000000  0.50000000  1
  Tc  Tc4  1  0.50000000  0.50000000  0.00000000  1
  Tc  Tc5  1  0.50000000  0.00000000  0.25000000  1
  Tc  Tc6  1  0.00000000  0.00000000  0.50000000  1
  Tc  Tc7  1  0.00000000  0.50000000  0.75000000  1
  O  O8  1  0.71721700  0.60834800  0.07291800  1
  O  O9  1  0.60834800  0.78278300  0.32291800  1
  O  O10  1  0.10834800  0.78278300  0.42708200  1
  O  O11  1  0.28278300  0.39165200  0.07291800  1
  O  O12  1  0.71721700  0.10834800  0.17708200  1
  O  O13  1  0.39165200  0.21721700  0.32291800  1
  O  O14  1  0.89165200  0.21721700  0.42708200  1
  O  O15  1  0.28278300  0.89165200  0.17708200  1
  O  O16  1  0.21721700  0.10834800  0.57291800  1
  O  O17  1  0.10834800  0.28278300  0.82291800  1
  O  O18  1  0.60834800  0.28278300  0.92708200  1
  O  O19  1  0.78278300  0.89165200  0.57291800  1
  O  O20  1  0.21721700  0.60834800  0.67708200  1
  O  O21  1  0.89165200  0.71721700  0.82291800  1
  O  O22  1  0.39165200  0.71721700  0.92708200  1
  O  O23  1  0.78278300  0.39165200  0.67708200  1
