# generated using pymatgen
data_Rb2H2C2O5
_symmetry_space_group_name_H-M   'P 1'
_cell_length_a   9.69495600
_cell_length_b   6.49408400
_cell_length_c   11.10720069
_cell_angle_alpha   90.00000000
_cell_angle_beta   108.52727871
_cell_angle_gamma   90.00000000
_symmetry_Int_Tables_number   1
_chemical_formula_structural   Rb2H2C2O5
_chemical_formula_sum   'Rb8 H8 C8 O20'
_cell_volume   663.06439558
_cell_formula_units_Z   4
loop_
 _symmetry_equiv_pos_site_id
 _symmetry_equiv_pos_as_xyz
  1  'x, y, z'
loop_
 _atom_site_type_symbol
 _atom_site_label
 _atom_site_symmetry_multiplicity
 _atom_site_fract_x
 _atom_site_fract_y
 _atom_site_fract_z
 _atom_site_occupancy
  Rb  Rb0  1  0.12985800  0.81992500  0.63018600  1
  Rb  Rb1  1  0.87014200  0.81992500  0.86981400  1
  Rb  Rb2  1  0.62985800  0.68007500  0.13018600  1
  Rb  Rb3  1  0.37014200  0.68007500  0.36981400  1
  Rb  Rb4  1  0.62985800  0.31992500  0.63018600  1
  Rb  Rb5  1  0.37014200  0.31992500  0.86981400  1
  Rb  Rb6  1  0.12985800  0.18007500  0.13018600  1
  Rb  Rb7  1  0.87014200  0.18007500  0.36981400  1
  H  H8  1  0.04184000  0.38819700  0.69849200  1
  H  H9  1  0.95816000  0.38819700  0.80150800  1
  H  H10  1  0.54184000  0.11180300  0.19849200  1
  H  H11  1  0.45816000  0.11180300  0.30150800  1
  H  H12  1  0.54184000  0.88819700  0.69849200  1
  H  H13  1  0.45816000  0.88819700  0.80150800  1
  H  H14  1  0.04184000  0.61180300  0.19849200  1
  H  H15  1  0.95816000  0.61180300  0.30150800  1
  C  C16  1  0.73715050  0.82132250  0.55345300  1
  C  C17  1  0.76284950  0.32132250  0.94654700  1
  C  C18  1  0.73715050  0.17867750  0.05345300  1
  C  C19  1  0.76284950  0.67867750  0.44654700  1
  C  C20  1  0.23715050  0.32132250  0.55345300  1
  C  C21  1  0.26284950  0.82132250  0.94654700  1
  C  C22  1  0.23715050  0.67867750  0.05345300  1
  C  C23  1  0.26284950  0.17867750  0.44654700  1
  O  O24  1  0.63198650  0.77149350  0.59334600  1
  O  O25  1  0.82211200  0.97229600  0.59266100  1
  O  O26  1  0.00000000  0.47793700  0.75000000  1
  O  O27  1  0.67788800  0.47229600  0.90733900  1
  O  O28  1  0.86801350  0.27149350  0.90665400  1
  O  O29  1  0.63198650  0.22850650  0.09334600  1
  O  O30  1  0.82211200  0.02770400  0.09266100  1
  O  O31  1  0.50000000  0.02206300  0.25000000  1
  O  O32  1  0.67788800  0.52770400  0.40733900  1
  O  O33  1  0.86801350  0.72850650  0.40665400  1
  O  O34  1  0.13198650  0.27149350  0.59334600  1
  O  O35  1  0.32211200  0.47229600  0.59266100  1
  O  O36  1  0.50000000  0.97793700  0.75000000  1
  O  O37  1  0.17788800  0.97229600  0.90733900  1
  O  O38  1  0.36801350  0.77149350  0.90665400  1
  O  O39  1  0.13198650  0.72850650  0.09334600  1
  O  O40  1  0.32211200  0.52770400  0.09266100  1
  O  O41  1  0.00000000  0.52206300  0.25000000  1
  O  O42  1  0.17788800  0.02770400  0.40733900  1
  O  O43  1  0.36801350  0.22850650  0.40665400  1
