# generated using pymatgen
data_SiO2
_symmetry_space_group_name_H-M   'P 1'
_cell_length_a   5.04053200
_cell_length_b   8.80238000
_cell_length_c   8.82039400
_cell_angle_alpha   90.00000000
_cell_angle_beta   90.00000000
_cell_angle_gamma   90.00000000
_symmetry_Int_Tables_number   1
_chemical_formula_structural   SiO2
_chemical_formula_sum   'Si8 O16'
_cell_volume   391.34922180
_cell_formula_units_Z   8
loop_
 _symmetry_equiv_pos_site_id
 _symmetry_equiv_pos_as_xyz
  1  'x, y, z'
loop_
 _atom_site_type_symbol
 _atom_site_label
 _atom_site_symmetry_multiplicity
 _atom_site_fract_x
 _atom_site_fract_y
 _atom_site_fract_z
 _atom_site_occupancy
  Si  Si0  1  0.93609400  0.81947700  0.17481700  1
  Si  Si1  1  0.06390600  0.81947700  0.82518300  1
  Si  Si2  1  0.43609400  0.68052300  0.32518300  1
  Si  Si3  1  0.93609400  0.18052300  0.17481700  1
  Si  Si4  1  0.06390600  0.18052300  0.82518300  1
  Si  Si5  1  0.43609400  0.31947700  0.32518300  1
  Si  Si6  1  0.56390600  0.68052300  0.67481700  1
  Si  Si7  1  0.56390600  0.31947700  0.67481700  1
  O  O8  1  0.01639000  0.00000000  0.79829700  1
  O  O9  1  0.50000000  0.72521800  0.50000000  1
  O  O10  1  0.51639000  0.50000000  0.70170300  1
  O  O11  1  0.98361000  0.00000000  0.20170300  1
  O  O12  1  0.12914700  0.27612400  0.28775900  1
  O  O13  1  0.87085300  0.27612400  0.71224100  1
  O  O14  1  0.00000000  0.22521800  0.00000000  1
  O  O15  1  0.62914700  0.77612400  0.21224100  1
  O  O16  1  0.37085300  0.77612400  0.78775900  1
  O  O17  1  0.50000000  0.27478200  0.50000000  1
  O  O18  1  0.37085300  0.22387600  0.78775900  1
  O  O19  1  0.12914700  0.72387600  0.28775900  1
  O  O20  1  0.62914700  0.22387600  0.21224100  1
  O  O21  1  0.48361000  0.50000000  0.29829700  1
  O  O22  1  0.00000000  0.77478200  0.00000000  1
  O  O23  1  0.87085300  0.72387600  0.71224100  1
