# generated using pymatgen
data_Sr2ZnN2
_symmetry_space_group_name_H-M   'P 1'
_cell_length_a   3.88439200
_cell_length_b   3.88439200
_cell_length_c   12.89069600
_cell_angle_alpha   90.00000000
_cell_angle_beta   90.00000000
_cell_angle_gamma   90.00000000
_symmetry_Int_Tables_number   1
_chemical_formula_structural   Sr2ZnN2
_chemical_formula_sum   'Sr4 Zn2 N4'
_cell_volume   194.50128219
_cell_formula_units_Z   2
loop_
 _symmetry_equiv_pos_site_id
 _symmetry_equiv_pos_as_xyz
  1  'x, y, z'
loop_
 _atom_site_type_symbol
 _atom_site_label
 _atom_site_symmetry_multiplicity
 _atom_site_fract_x
 _atom_site_fract_y
 _atom_site_fract_z
 _atom_site_occupancy
  Sr  Sr0  1  0.50000000  0.50000000  0.15885800  1
  Sr  Sr1  1  0.00000000  0.00000000  0.34114200  1
  Sr  Sr2  1  0.00000000  0.00000000  0.65885800  1
  Sr  Sr3  1  0.50000000  0.50000000  0.84114200  1
  Zn  Zn4  1  0.00000000  0.00000000  0.00000000  1
  Zn  Zn5  1  0.50000000  0.50000000  0.50000000  1
  N  N6  1  0.50000000  0.50000000  0.35663600  1
  N  N7  1  0.00000000  0.00000000  0.14336400  1
  N  N8  1  0.00000000  0.00000000  0.85663600  1
  N  N9  1  0.50000000  0.50000000  0.64336400  1
