# generated using pymatgen
data_Na2LiAlP2
_symmetry_space_group_name_H-M   'P 1'
_cell_length_a   11.60379200
_cell_length_b   13.65432800
_cell_length_c   5.80139200
_cell_angle_alpha   90.00000000
_cell_angle_beta   90.00000000
_cell_angle_gamma   90.00000000
_symmetry_Int_Tables_number   1
_chemical_formula_structural   Na2LiAlP2
_chemical_formula_sum   'Na16 Li8 Al8 P16'
_cell_volume   919.18404691
_cell_formula_units_Z   8
loop_
 _symmetry_equiv_pos_site_id
 _symmetry_equiv_pos_as_xyz
  1  'x, y, z'
loop_
 _atom_site_type_symbol
 _atom_site_label
 _atom_site_symmetry_multiplicity
 _atom_site_fract_x
 _atom_site_fract_y
 _atom_site_fract_z
 _atom_site_occupancy
  Na  Na0  1  0.75000000  0.18151100  0.25000000  1
  Na  Na1  1  0.50000000  0.82177000  0.21399600  1
  Na  Na2  1  0.50000000  0.17823000  0.78600400  1
  Na  Na3  1  0.25000000  0.18151100  0.25000000  1
  Na  Na4  1  0.75000000  0.81848900  0.75000000  1
  Na  Na5  1  0.25000000  0.81848900  0.75000000  1
  Na  Na6  1  0.50000000  0.67823000  0.71399600  1
  Na  Na7  1  0.50000000  0.32177000  0.28600400  1
  Na  Na8  1  0.25000000  0.68151100  0.25000000  1
  Na  Na9  1  0.00000000  0.32177000  0.21399600  1
  Na  Na10  1  0.00000000  0.67823000  0.78600400  1
  Na  Na11  1  0.75000000  0.68151100  0.25000000  1
  Na  Na12  1  0.25000000  0.31848900  0.75000000  1
  Na  Na13  1  0.75000000  0.31848900  0.75000000  1
  Na  Na14  1  0.00000000  0.17823000  0.71399600  1
  Na  Na15  1  0.00000000  0.82177000  0.28600400  1
  Li  Li16  1  0.88131000  0.00000000  0.50000000  1
  Li  Li17  1  0.11869000  0.00000000  0.50000000  1
  Li  Li18  1  0.61869000  0.00000000  0.00000000  1
  Li  Li19  1  0.38131000  0.00000000  0.00000000  1
  Li  Li20  1  0.38131000  0.50000000  0.50000000  1
  Li  Li21  1  0.61869000  0.50000000  0.50000000  1
  Li  Li22  1  0.11869000  0.50000000  0.00000000  1
  Li  Li23  1  0.88131000  0.50000000  0.00000000  1
  Al  Al24  1  0.87033500  0.00000000  0.00000000  1
  Al  Al25  1  0.12966500  0.00000000  0.00000000  1
  Al  Al26  1  0.37033500  0.00000000  0.50000000  1
  Al  Al27  1  0.62966500  0.00000000  0.50000000  1
  Al  Al28  1  0.37033500  0.50000000  0.00000000  1
  Al  Al29  1  0.62966500  0.50000000  0.00000000  1
  Al  Al30  1  0.87033500  0.50000000  0.50000000  1
  Al  Al31  1  0.12966500  0.50000000  0.50000000  1
  P  P32  1  0.50000000  0.39582100  0.78636600  1
  P  P33  1  0.50000000  0.89582100  0.71363400  1
  P  P34  1  0.50000000  0.60417900  0.21363400  1
  P  P35  1  0.50000000  0.10417900  0.28636600  1
  P  P36  1  0.25000000  0.89861500  0.25000000  1
  P  P37  1  0.25000000  0.10138500  0.75000000  1
  P  P38  1  0.75000000  0.10138500  0.75000000  1
  P  P39  1  0.75000000  0.89861500  0.25000000  1
  P  P40  1  0.00000000  0.89582100  0.78636600  1
  P  P41  1  0.00000000  0.39582100  0.71363400  1
  P  P42  1  0.00000000  0.10417900  0.21363400  1
  P  P43  1  0.00000000  0.60417900  0.28636600  1
  P  P44  1  0.75000000  0.39861500  0.25000000  1
  P  P45  1  0.75000000  0.60138500  0.75000000  1
  P  P46  1  0.25000000  0.60138500  0.75000000  1
  P  P47  1  0.25000000  0.39861500  0.25000000  1
