# generated using pymatgen
data_Na3Mn2SbO6
_symmetry_space_group_name_H-M   'P 1'
_cell_length_a   5.56912815
_cell_length_b   9.61929700
_cell_length_c   5.78683475
_cell_angle_alpha   90.00000000
_cell_angle_beta   108.97990598
_cell_angle_gamma   90.00000000
_symmetry_Int_Tables_number   1
_chemical_formula_structural   Na3Mn2SbO6
_chemical_formula_sum   'Na6 Mn4 Sb2 O12'
_cell_volume   293.15284034
_cell_formula_units_Z   2
loop_
 _symmetry_equiv_pos_site_id
 _symmetry_equiv_pos_as_xyz
  1  'x, y, z'
loop_
 _atom_site_type_symbol
 _atom_site_label
 _atom_site_symmetry_multiplicity
 _atom_site_fract_x
 _atom_site_fract_y
 _atom_site_fract_z
 _atom_site_occupancy
  Na  Na0  1  0.50000000  0.00000000  0.00000000  1
  Na  Na1  1  0.50000000  0.32864150  0.00000000  1
  Na  Na2  1  0.50000000  0.67135850  0.00000000  1
  Na  Na3  1  0.00000000  0.50000000  0.00000000  1
  Na  Na4  1  0.00000000  0.82864150  0.00000000  1
  Na  Na5  1  0.00000000  0.17135850  0.00000000  1
  Mn  Mn6  1  0.50000000  0.83374950  0.50000000  1
  Mn  Mn7  1  0.50000000  0.16625050  0.50000000  1
  Mn  Mn8  1  0.00000000  0.33374950  0.50000000  1
  Mn  Mn9  1  0.00000000  0.66625050  0.50000000  1
  Sb  Sb10  1  0.00000000  0.00000000  0.50000000  1
  Sb  Sb11  1  0.50000000  0.50000000  0.50000000  1
  O  O12  1  0.23577000  0.00000000  0.29447900  1
  O  O13  1  0.76423000  0.00000000  0.70552100  1
  O  O14  1  0.22229650  0.15310450  0.70921100  1
  O  O15  1  0.22229650  0.84689550  0.70921100  1
  O  O16  1  0.77770350  0.15310450  0.29078900  1
  O  O17  1  0.77770350  0.84689550  0.29078900  1
  O  O18  1  0.73577000  0.50000000  0.29447900  1
  O  O19  1  0.26423000  0.50000000  0.70552100  1
  O  O20  1  0.72229650  0.65310450  0.70921100  1
  O  O21  1  0.72229650  0.34689550  0.70921100  1
  O  O22  1  0.27770350  0.65310450  0.29078900  1
  O  O23  1  0.27770350  0.34689550  0.29078900  1
