# generated using pymatgen
data_LiMnSO4F
_symmetry_space_group_name_H-M   'P 1'
_cell_length_a   5.27669554
_cell_length_b   5.67095678
_cell_length_c   7.57354937
_cell_angle_alpha   107.14321792
_cell_angle_beta   108.41858000
_cell_angle_gamma   96.33692047
_symmetry_Int_Tables_number   1
_chemical_formula_structural   LiMnSO4F
_chemical_formula_sum   'Li2 Mn2 S2 O8 F2'
_cell_volume   200.22441326
_cell_formula_units_Z   2
loop_
 _symmetry_equiv_pos_site_id
 _symmetry_equiv_pos_as_xyz
  1  'x, y, z'
loop_
 _atom_site_type_symbol
 _atom_site_label
 _atom_site_symmetry_multiplicity
 _atom_site_fract_x
 _atom_site_fract_y
 _atom_site_fract_z
 _atom_site_occupancy
  Li  Li0  1  0.26068200  0.62001200  0.79279500  1
  Li  Li1  1  0.73931800  0.37998800  0.20720500  1
  Mn  Mn2  1  0.00000000  0.00000000  0.00000000  1
  Mn  Mn3  1  0.00000000  0.00000000  0.50000000  1
  S  S4  1  0.32657600  0.63106700  0.24279000  1
  S  S5  1  0.67342400  0.36893300  0.75721000  1
  O  O6  1  0.60028500  0.75123800  0.40016000  1
  O  O7  1  0.39971500  0.24876200  0.59984000  1
  O  O8  1  0.10729500  0.65068300  0.32855200  1
  O  O9  1  0.89270500  0.34931700  0.67144800  1
  O  O10  1  0.32840300  0.35889400  0.14913600  1
  O  O11  1  0.67159700  0.64110600  0.85086400  1
  O  O12  1  0.27362700  0.75200300  0.08775700  1
  O  O13  1  0.72637300  0.24799700  0.91224300  1
  F  F14  1  0.12119500  0.89848500  0.75454000  1
  F  F15  1  0.87880500  0.10151500  0.24546000  1
