# generated using pymatgen
data_Yb4As2O
_symmetry_space_group_name_H-M   'P 1'
_cell_length_a   4.51551000
_cell_length_b   4.51551000
_cell_length_c   15.30960000
_cell_angle_alpha   90.00000000
_cell_angle_beta   90.00000000
_cell_angle_gamma   90.00000000
_symmetry_Int_Tables_number   1
_chemical_formula_structural   Yb4As2O
_chemical_formula_sum   'Yb8 As4 O2'
_cell_volume   312.16014994
_cell_formula_units_Z   2
loop_
 _symmetry_equiv_pos_site_id
 _symmetry_equiv_pos_as_xyz
  1  'x, y, z'
loop_
 _atom_site_type_symbol
 _atom_site_label
 _atom_site_symmetry_multiplicity
 _atom_site_fract_x
 _atom_site_fract_y
 _atom_site_fract_z
 _atom_site_occupancy
  Yb  Yb0  1  0.50000000  0.50000000  0.33101700  1
  Yb  Yb1  1  0.00000000  0.00000000  0.16898300  1
  Yb  Yb2  1  0.00000000  0.50000000  0.00000000  1
  Yb  Yb3  1  0.50000000  0.00000000  0.00000000  1
  Yb  Yb4  1  0.00000000  0.00000000  0.83101700  1
  Yb  Yb5  1  0.50000000  0.50000000  0.66898300  1
  Yb  Yb6  1  0.50000000  0.00000000  0.50000000  1
  Yb  Yb7  1  0.00000000  0.50000000  0.50000000  1
  As  As8  1  0.50000000  0.50000000  0.13692500  1
  As  As9  1  0.00000000  0.00000000  0.36307500  1
  As  As10  1  0.00000000  0.00000000  0.63692500  1
  As  As11  1  0.50000000  0.50000000  0.86307500  1
  O  O12  1  0.00000000  0.00000000  0.00000000  1
  O  O13  1  0.50000000  0.50000000  0.50000000  1
