# generated using pymatgen
data_CdCuF4
_symmetry_space_group_name_H-M   'P 1'
_cell_length_a   5.44297800
_cell_length_b   5.44297800
_cell_length_c   10.42583400
_cell_angle_alpha   90.00000000
_cell_angle_beta   90.00000000
_cell_angle_gamma   90.00000000
_symmetry_Int_Tables_number   1
_chemical_formula_structural   CdCuF4
_chemical_formula_sum   'Cd4 Cu4 F16'
_cell_volume   308.87585722
_cell_formula_units_Z   4
loop_
 _symmetry_equiv_pos_site_id
 _symmetry_equiv_pos_as_xyz
  1  'x, y, z'
loop_
 _atom_site_type_symbol
 _atom_site_label
 _atom_site_symmetry_multiplicity
 _atom_site_fract_x
 _atom_site_fract_y
 _atom_site_fract_z
 _atom_site_occupancy
  Cd  Cd0  1  0.00000000  0.00000000  0.25000000  1
  Cd  Cd1  1  0.50000000  0.50000000  0.25000000  1
  Cd  Cd2  1  0.50000000  0.50000000  0.75000000  1
  Cd  Cd3  1  0.00000000  0.00000000  0.75000000  1
  Cu  Cu4  1  0.00000000  0.50000000  0.00000000  1
  Cu  Cu5  1  0.50000000  0.00000000  0.00000000  1
  Cu  Cu6  1  0.50000000  0.00000000  0.50000000  1
  Cu  Cu7  1  0.00000000  0.50000000  0.50000000  1
  F  F8  1  0.31968850  0.81968850  0.12776950  1
  F  F9  1  0.81968850  0.31968850  0.37223050  1
  F  F10  1  0.18031150  0.68031150  0.37223050  1
  F  F11  1  0.31968850  0.18031150  0.37223050  1
  F  F12  1  0.68031150  0.18031150  0.12776950  1
  F  F13  1  0.81968850  0.68031150  0.12776950  1
  F  F14  1  0.18031150  0.31968850  0.12776950  1
  F  F15  1  0.68031150  0.81968850  0.37223050  1
  F  F16  1  0.81968850  0.31968850  0.62776950  1
  F  F17  1  0.31968850  0.81968850  0.87223050  1
  F  F18  1  0.68031150  0.18031150  0.87223050  1
  F  F19  1  0.81968850  0.68031150  0.87223050  1
  F  F20  1  0.18031150  0.68031150  0.62776950  1
  F  F21  1  0.31968850  0.18031150  0.62776950  1
  F  F22  1  0.68031150  0.81968850  0.62776950  1
  F  F23  1  0.18031150  0.31968850  0.87223050  1
