# generated using pymatgen
data_Tl3AsS3
_symmetry_space_group_name_H-M   'P 1'
_cell_length_a   9.86870834
_cell_length_b   9.86870834
_cell_length_c   7.26245764
_cell_angle_alpha   90.00000000
_cell_angle_beta   90.00000000
_cell_angle_gamma   120.00000000
_symmetry_Int_Tables_number   1
_chemical_formula_structural   Tl3AsS3
_chemical_formula_sum   'Tl9 As3 S9'
_cell_volume   612.54058955
_cell_formula_units_Z   3
loop_
 _symmetry_equiv_pos_site_id
 _symmetry_equiv_pos_as_xyz
  1  'x, y, z'
loop_
 _atom_site_type_symbol
 _atom_site_label
 _atom_site_symmetry_multiplicity
 _atom_site_fract_x
 _atom_site_fract_y
 _atom_site_fract_z
 _atom_site_occupancy
  Tl  Tl0  1  0.40169467  0.20084733  0.21193633  1
  Tl  Tl1  1  0.79915267  0.20084733  0.21193633  1
  Tl  Tl2  1  0.79915267  0.59830533  0.21193633  1
  Tl  Tl3  1  0.06836133  0.53418067  0.54526967  1
  Tl  Tl4  1  0.46581933  0.53418067  0.54526967  1
  Tl  Tl5  1  0.46581933  0.93163867  0.54526967  1
  Tl  Tl6  1  0.73502800  0.86751400  0.87860300  1
  Tl  Tl7  1  0.13248600  0.86751400  0.87860300  1
  Tl  Tl8  1  0.13248600  0.26497200  0.87860300  1
  As  As9  1  0.00000000  0.00000000  0.43653300  1
  As  As10  1  0.66666667  0.33333333  0.76986633  1
  As  As11  1  0.33333333  0.66666667  0.10319967  1
  S  S12  1  0.75894333  0.87947167  0.30088567  1
  S  S13  1  0.12052833  0.87947167  0.30088567  1
  S  S14  1  0.12052833  0.24105667  0.30088567  1
  S  S15  1  0.42561000  0.21280500  0.63421900  1
  S  S16  1  0.78719500  0.21280500  0.63421900  1
  S  S17  1  0.78719500  0.57439000  0.63421900  1
  S  S18  1  0.09227667  0.54613833  0.96755233  1
  S  S19  1  0.45386167  0.54613833  0.96755233  1
  S  S20  1  0.45386167  0.90772333  0.96755233  1
