# generated using pymatgen
data_Ho2S3
_symmetry_space_group_name_H-M   'P 1'
_cell_length_a   6.87077046
_cell_length_b   6.87077046
_cell_length_c   18.44346031
_cell_angle_alpha   90.00000000
_cell_angle_beta   90.00000000
_cell_angle_gamma   120.00000000
_symmetry_Int_Tables_number   1
_chemical_formula_structural   Ho2S3
_chemical_formula_sum   'Ho12 S18'
_cell_volume   754.02182563
_cell_formula_units_Z   6
loop_
 _symmetry_equiv_pos_site_id
 _symmetry_equiv_pos_as_xyz
  1  'x, y, z'
loop_
 _atom_site_type_symbol
 _atom_site_label
 _atom_site_symmetry_multiplicity
 _atom_site_fract_x
 _atom_site_fract_y
 _atom_site_fract_z
 _atom_site_occupancy
  Ho  Ho0  1  0.00000000  0.00000000  0.14981300  1
  Ho  Ho1  1  0.33333333  0.66666667  0.01685367  1
  Ho  Ho2  1  0.33333333  0.66666667  0.31647967  1
  Ho  Ho3  1  0.66666667  0.33333333  0.18352033  1
  Ho  Ho4  1  0.66666667  0.33333333  0.48314633  1
  Ho  Ho5  1  0.00000000  0.00000000  0.35018700  1
  Ho  Ho6  1  0.00000000  0.00000000  0.64981300  1
  Ho  Ho7  1  0.33333333  0.66666667  0.51685367  1
  Ho  Ho8  1  0.33333333  0.66666667  0.81647967  1
  Ho  Ho9  1  0.66666667  0.33333333  0.68352033  1
  Ho  Ho10  1  0.66666667  0.33333333  0.98314633  1
  Ho  Ho11  1  0.00000000  0.00000000  0.85018700  1
  S  S12  1  0.66666667  0.63472533  0.08333333  1
  S  S13  1  0.96805867  0.33333333  0.08333333  1
  S  S14  1  0.36527467  0.03194133  0.08333333  1
  S  S15  1  0.30139200  0.30139200  0.25000000  1
  S  S16  1  0.69860800  0.00000000  0.25000000  1
  S  S17  1  0.00000000  0.69860800  0.25000000  1
  S  S18  1  0.33333333  0.96805867  0.41666667  1
  S  S19  1  0.63472533  0.66666667  0.41666667  1
  S  S20  1  0.03194133  0.36527467  0.41666667  1
  S  S21  1  0.96805867  0.63472533  0.58333333  1
  S  S22  1  0.36527467  0.33333333  0.58333333  1
  S  S23  1  0.66666667  0.03194133  0.58333333  1
  S  S24  1  0.00000000  0.30139200  0.75000000  1
  S  S25  1  0.30139200  0.00000000  0.75000000  1
  S  S26  1  0.69860800  0.69860800  0.75000000  1
  S  S27  1  0.63472533  0.96805867  0.91666667  1
  S  S28  1  0.03194133  0.66666667  0.91666667  1
  S  S29  1  0.33333333  0.36527467  0.91666667  1
