# generated using pymatgen
data_RbAsF6
_symmetry_space_group_name_H-M   'P 1'
_cell_length_a   7.73396541
_cell_length_b   7.73396541
_cell_length_c   7.72698624
_cell_angle_alpha   90.00000000
_cell_angle_beta   90.00000000
_cell_angle_gamma   120.00000000
_symmetry_Int_Tables_number   1
_chemical_formula_structural   RbAsF6
_chemical_formula_sum   'Rb3 As3 F18'
_cell_volume   400.26279313
_cell_formula_units_Z   3
loop_
 _symmetry_equiv_pos_site_id
 _symmetry_equiv_pos_as_xyz
  1  'x, y, z'
loop_
 _atom_site_type_symbol
 _atom_site_label
 _atom_site_symmetry_multiplicity
 _atom_site_fract_x
 _atom_site_fract_y
 _atom_site_fract_z
 _atom_site_occupancy
  Rb  Rb0  1  0.00000000  0.00000000  0.50000000  1
  Rb  Rb1  1  0.66666667  0.33333333  0.83333333  1
  Rb  Rb2  1  0.33333333  0.66666667  0.16666667  1
  As  As3  1  0.00000000  0.00000000  0.00000000  1
  As  As4  1  0.66666667  0.33333333  0.33333333  1
  As  As5  1  0.33333333  0.66666667  0.66666667  1
  F  F6  1  0.74457833  0.19856967  0.46758167  1
  F  F7  1  0.80143033  0.54600867  0.46758167  1
  F  F8  1  0.54600867  0.74457833  0.53241833  1
  F  F9  1  0.19856967  0.45399133  0.53241833  1
  F  F10  1  0.25542167  0.80143033  0.53241833  1
  F  F11  1  0.45399133  0.25542167  0.46758167  1
  F  F12  1  0.41124500  0.53190300  0.80091500  1
  F  F13  1  0.46809700  0.87934200  0.80091500  1
  F  F14  1  0.21267533  0.07791167  0.86575167  1
  F  F15  1  0.86523633  0.78732467  0.86575167  1
  F  F16  1  0.92208833  0.13476367  0.86575167  1
  F  F17  1  0.12065800  0.58875500  0.80091500  1
  F  F18  1  0.07791167  0.86523633  0.13424833  1
  F  F19  1  0.13476367  0.21267533  0.13424833  1
  F  F20  1  0.87934200  0.41124500  0.19908500  1
  F  F21  1  0.53190300  0.12065800  0.19908500  1
  F  F22  1  0.58875500  0.46809700  0.19908500  1
  F  F23  1  0.78732467  0.92208833  0.13424833  1
