# generated using pymatgen
data_Zn3(PO4)2
_symmetry_space_group_name_H-M   'P 1'
_cell_length_a   4.99059300
_cell_length_b   9.14046900
_cell_length_c   8.24457098
_cell_angle_alpha   90.00000000
_cell_angle_beta   126.51475286
_cell_angle_gamma   90.00000000
_symmetry_Int_Tables_number   1
_chemical_formula_structural   Zn3(PO4)2
_chemical_formula_sum   'Zn6 P4 O16'
_cell_volume   302.26276373
_cell_formula_units_Z   2
loop_
 _symmetry_equiv_pos_site_id
 _symmetry_equiv_pos_as_xyz
  1  'x, y, z'
loop_
 _atom_site_type_symbol
 _atom_site_label
 _atom_site_symmetry_multiplicity
 _atom_site_fract_x
 _atom_site_fract_y
 _atom_site_fract_z
 _atom_site_occupancy
  Zn  Zn0  1  0.30428000  0.62892600  0.33418900  1
  Zn  Zn1  1  0.69572000  0.12892600  0.16581100  1
  Zn  Zn2  1  0.69572000  0.37107400  0.66581100  1
  Zn  Zn3  1  0.30428000  0.87107400  0.83418900  1
  Zn  Zn4  1  0.50000000  0.00000000  0.50000000  1
  Zn  Zn5  1  0.50000000  0.50000000  0.00000000  1
  P  P6  1  0.18485700  0.31204800  0.16917100  1
  P  P7  1  0.81514300  0.81204800  0.33082900  1
  P  P8  1  0.81514300  0.68795200  0.83082900  1
  P  P9  1  0.18485700  0.18795200  0.66917100  1
  O  O10  1  0.13872900  0.15198400  0.21143400  1
  O  O11  1  0.86127100  0.65198400  0.28856600  1
  O  O12  1  0.86127100  0.84801600  0.78856600  1
  O  O13  1  0.13872900  0.34801600  0.71143400  1
  O  O14  1  0.30428200  0.41108900  0.35265800  1
  O  O15  1  0.69571800  0.91108900  0.14734200  1
  O  O16  1  0.69571800  0.58891100  0.64734200  1
  O  O17  1  0.30428200  0.08891100  0.85265800  1
  O  O18  1  0.45679400  0.31800700  0.13009000  1
  O  O19  1  0.54320600  0.81800700  0.36991000  1
  O  O20  1  0.54320600  0.68199300  0.86991000  1
  O  O21  1  0.45679400  0.18199300  0.63009000  1
  O  O22  1  0.84634000  0.37141900  0.98103000  1
  O  O23  1  0.15366000  0.87141900  0.51897000  1
  O  O24  1  0.15366000  0.62858100  0.01897000  1
  O  O25  1  0.84634000  0.12858100  0.48103000  1
