# generated using pymatgen
data_CsSbF6
_symmetry_space_group_name_H-M   'P 1'
_cell_length_a   8.11774519
_cell_length_b   8.11774519
_cell_length_c   8.36622539
_cell_angle_alpha   90.00000000
_cell_angle_beta   90.00000000
_cell_angle_gamma   120.00000000
_symmetry_Int_Tables_number   1
_chemical_formula_structural   CsSbF6
_chemical_formula_sum   'Cs3 Sb3 F18'
_cell_volume   477.45343574
_cell_formula_units_Z   3
loop_
 _symmetry_equiv_pos_site_id
 _symmetry_equiv_pos_as_xyz
  1  'x, y, z'
loop_
 _atom_site_type_symbol
 _atom_site_label
 _atom_site_symmetry_multiplicity
 _atom_site_fract_x
 _atom_site_fract_y
 _atom_site_fract_z
 _atom_site_occupancy
  Cs  Cs0  1  0.00000000  0.00000000  0.50000000  1
  Cs  Cs1  1  0.66666667  0.33333333  0.83333333  1
  Cs  Cs2  1  0.33333333  0.66666667  0.16666667  1
  Sb  Sb3  1  0.00000000  0.00000000  0.00000000  1
  Sb  Sb4  1  0.66666667  0.33333333  0.33333333  1
  Sb  Sb5  1  0.33333333  0.66666667  0.66666667  1
  F  F6  1  0.18340600  0.45067400  0.53171200  1
  F  F7  1  0.54932600  0.73273200  0.53171200  1
  F  F8  1  0.73273200  0.18340600  0.46828800  1
  F  F9  1  0.45067400  0.26726800  0.46828800  1
  F  F10  1  0.81659400  0.54932600  0.46828800  1
  F  F11  1  0.26726800  0.81659400  0.53171200  1
  F  F12  1  0.85007267  0.78400733  0.86504533  1
  F  F13  1  0.21599267  0.06606533  0.86504533  1
  F  F14  1  0.39939867  0.51673933  0.80162133  1
  F  F15  1  0.11734067  0.60060133  0.80162133  1
  F  F16  1  0.48326067  0.88265933  0.80162133  1
  F  F17  1  0.93393467  0.14992733  0.86504533  1
  F  F18  1  0.51673933  0.11734067  0.19837867  1
  F  F19  1  0.88265933  0.39939867  0.19837867  1
  F  F20  1  0.06606533  0.85007267  0.13495467  1
  F  F21  1  0.78400733  0.93393467  0.13495467  1
  F  F22  1  0.14992733  0.21599267  0.13495467  1
  F  F23  1  0.60060133  0.48326067  0.19837867  1
