# generated using pymatgen
data_K3SeO4F
_symmetry_space_group_name_H-M   'P 1'
_cell_length_a   7.47727600
_cell_length_b   7.47727600
_cell_length_c   11.64785800
_cell_angle_alpha   90.00000000
_cell_angle_beta   90.00000000
_cell_angle_gamma   90.00000000
_symmetry_Int_Tables_number   1
_chemical_formula_structural   K3SeO4F
_chemical_formula_sum   'K12 Se4 O16 F4'
_cell_volume   651.22773835
_cell_formula_units_Z   4
loop_
 _symmetry_equiv_pos_site_id
 _symmetry_equiv_pos_as_xyz
  1  'x, y, z'
loop_
 _atom_site_type_symbol
 _atom_site_label
 _atom_site_symmetry_multiplicity
 _atom_site_fract_x
 _atom_site_fract_y
 _atom_site_fract_z
 _atom_site_occupancy
  K  K0  1  0.50000000  0.50000000  0.25000000  1
  K  K1  1  0.00000000  0.00000000  0.25000000  1
  K  K2  1  0.30940700  0.80940700  0.00000000  1
  K  K3  1  0.19059300  0.30940700  0.00000000  1
  K  K4  1  0.80940700  0.69059300  0.00000000  1
  K  K5  1  0.69059300  0.19059300  0.00000000  1
  K  K6  1  0.00000000  0.00000000  0.75000000  1
  K  K7  1  0.50000000  0.50000000  0.75000000  1
  K  K8  1  0.80940700  0.30940700  0.50000000  1
  K  K9  1  0.69059300  0.80940700  0.50000000  1
  K  K10  1  0.30940700  0.19059300  0.50000000  1
  K  K11  1  0.19059300  0.69059300  0.50000000  1
  Se  Se12  1  0.50000000  0.00000000  0.25000000  1
  Se  Se13  1  0.00000000  0.50000000  0.25000000  1
  Se  Se14  1  0.00000000  0.50000000  0.75000000  1
  Se  Se15  1  0.50000000  0.00000000  0.75000000  1
  O  O16  1  0.87247850  0.37247850  0.16457750  1
  O  O17  1  0.37247850  0.87247850  0.33542250  1
  O  O18  1  0.62752150  0.12752150  0.33542250  1
  O  O19  1  0.87247850  0.62752150  0.33542250  1
  O  O20  1  0.12752150  0.37247850  0.33542250  1
  O  O21  1  0.62752150  0.87247850  0.16457750  1
  O  O22  1  0.37247850  0.12752150  0.16457750  1
  O  O23  1  0.12752150  0.62752150  0.16457750  1
  O  O24  1  0.37247850  0.87247850  0.66457750  1
  O  O25  1  0.87247850  0.37247850  0.83542250  1
  O  O26  1  0.12752150  0.62752150  0.83542250  1
  O  O27  1  0.37247850  0.12752150  0.83542250  1
  O  O28  1  0.62752150  0.87247850  0.83542250  1
  O  O29  1  0.12752150  0.37247850  0.66457750  1
  O  O30  1  0.87247850  0.62752150  0.66457750  1
  O  O31  1  0.62752150  0.12752150  0.66457750  1
  F  F32  1  0.50000000  0.50000000  0.00000000  1
  F  F33  1  0.00000000  0.00000000  0.00000000  1
  F  F34  1  0.00000000  0.00000000  0.50000000  1
  F  F35  1  0.50000000  0.50000000  0.50000000  1
