# generated using pymatgen
data_KCaCl3
_symmetry_space_group_name_H-M   'P 1'
_cell_length_a   7.64573000
_cell_length_b   7.64862800
_cell_length_c   5.40651703
_cell_angle_alpha   90.00000000
_cell_angle_beta   90.00559550
_cell_angle_gamma   90.00000000
_symmetry_Int_Tables_number   1
_chemical_formula_structural   KCaCl3
_chemical_formula_sum   'K2 Ca2 Cl6'
_cell_volume   316.16957050
_cell_formula_units_Z   2
loop_
 _symmetry_equiv_pos_site_id
 _symmetry_equiv_pos_as_xyz
  1  'x, y, z'
loop_
 _atom_site_type_symbol
 _atom_site_label
 _atom_site_symmetry_multiplicity
 _atom_site_fract_x
 _atom_site_fract_y
 _atom_site_fract_z
 _atom_site_occupancy
  K  K0  1  0.00195300  0.00000000  0.00001500  1
  K  K1  1  0.50195300  0.50000000  0.00001500  1
  Ca  Ca2  1  0.50210600  0.00000000  0.51478700  1
  Ca  Ca3  1  0.00210600  0.50000000  0.51478700  1
  Cl  Cl4  1  0.25252800  0.74805100  0.51722400  1
  Cl  Cl5  1  0.49271100  0.00000000  0.01485900  1
  Cl  Cl6  1  0.25252800  0.25194900  0.51722400  1
  Cl  Cl7  1  0.75252800  0.24805100  0.51722400  1
  Cl  Cl8  1  0.99271100  0.50000000  0.01485900  1
  Cl  Cl9  1  0.75252800  0.75194900  0.51722400  1
