# generated using pymatgen
data_NiH2SeO5
_symmetry_space_group_name_H-M   'P 1'
_cell_length_a   7.43920223
_cell_length_b   7.17662846
_cell_length_c   7.96480371
_cell_angle_alpha   90.00000000
_cell_angle_beta   115.49891442
_cell_angle_gamma   90.00000000
_symmetry_Int_Tables_number   1
_chemical_formula_structural   NiH2SeO5
_chemical_formula_sum   'Ni4 H8 Se4 O20'
_cell_volume   383.80804895
_cell_formula_units_Z   4
loop_
 _symmetry_equiv_pos_site_id
 _symmetry_equiv_pos_as_xyz
  1  'x, y, z'
loop_
 _atom_site_type_symbol
 _atom_site_label
 _atom_site_symmetry_multiplicity
 _atom_site_fract_x
 _atom_site_fract_y
 _atom_site_fract_z
 _atom_site_occupancy
  Ni  Ni0  1  0.50000000  0.50000000  0.00000000  1
  Ni  Ni1  1  0.00000000  0.00000000  0.50000000  1
  Ni  Ni2  1  0.00000000  0.00000000  0.00000000  1
  Ni  Ni3  1  0.50000000  0.50000000  0.50000000  1
  H  H4  1  0.38913050  0.88236750  0.49942150  1
  H  H5  1  0.61086950  0.88236750  0.00057850  1
  H  H6  1  0.88913050  0.61763250  0.99942150  1
  H  H7  1  0.11086950  0.61763250  0.50057850  1
  H  H8  1  0.88913050  0.38236750  0.49942150  1
  H  H9  1  0.11086950  0.38236750  0.00057850  1
  H  H10  1  0.38913050  0.11763250  0.99942150  1
  H  H11  1  0.61086950  0.11763250  0.50057850  1
  Se  Se12  1  0.00000000  0.69098100  0.75000000  1
  Se  Se13  1  0.50000000  0.80901900  0.25000000  1
  Se  Se14  1  0.50000000  0.19098100  0.75000000  1
  Se  Se15  1  0.00000000  0.30901900  0.25000000  1
  O  O16  1  0.00000000  0.93459550  0.75000000  1
  O  O17  1  0.50000000  0.56540450  0.25000000  1
  O  O18  1  0.09465000  0.73061100  0.56666850  1
  O  O19  1  0.90535000  0.73061100  0.93333150  1
  O  O20  1  0.59465000  0.76938900  0.06666850  1
  O  O21  1  0.40535000  0.76938900  0.43333150  1
  O  O22  1  0.80912900  0.55688200  0.60972250  1
  O  O23  1  0.69087100  0.05688200  0.89027750  1
  O  O24  1  0.80912900  0.44311800  0.10972250  1
  O  O25  1  0.69087100  0.94311800  0.39027750  1
  O  O26  1  0.50000000  0.43459550  0.75000000  1
  O  O27  1  0.00000000  0.06540450  0.25000000  1
  O  O28  1  0.59465000  0.23061100  0.56666850  1
  O  O29  1  0.40535000  0.23061100  0.93333150  1
  O  O30  1  0.09465000  0.26938900  0.06666850  1
  O  O31  1  0.90535000  0.26938900  0.43333150  1
  O  O32  1  0.30912900  0.05688200  0.60972250  1
  O  O33  1  0.19087100  0.55688200  0.89027750  1
  O  O34  1  0.30912900  0.94311800  0.10972250  1
  O  O35  1  0.19087100  0.44311800  0.39027750  1
