# generated using pymatgen
data_KHfCuS3
_symmetry_space_group_name_H-M   'P 1'
_cell_length_a   3.73226400
_cell_length_b   14.30218600
_cell_length_c   9.76200900
_cell_angle_alpha   90.00000000
_cell_angle_beta   90.00000000
_cell_angle_gamma   90.00000000
_symmetry_Int_Tables_number   1
_chemical_formula_structural   KHfCuS3
_chemical_formula_sum   'K4 Hf4 Cu4 S12'
_cell_volume   521.09149063
_cell_formula_units_Z   4
loop_
 _symmetry_equiv_pos_site_id
 _symmetry_equiv_pos_as_xyz
  1  'x, y, z'
loop_
 _atom_site_type_symbol
 _atom_site_label
 _atom_site_symmetry_multiplicity
 _atom_site_fract_x
 _atom_site_fract_y
 _atom_site_fract_z
 _atom_site_occupancy
  K  K0  1  0.00000000  0.25468200  0.75000000  1
  K  K1  1  0.50000000  0.24531800  0.25000000  1
  K  K2  1  0.50000000  0.75468200  0.75000000  1
  K  K3  1  0.00000000  0.74531800  0.25000000  1
  Hf  Hf4  1  0.00000000  0.00000000  0.50000000  1
  Hf  Hf5  1  0.00000000  0.00000000  0.00000000  1
  Hf  Hf6  1  0.50000000  0.50000000  0.50000000  1
  Hf  Hf7  1  0.50000000  0.50000000  0.00000000  1
  Cu  Cu8  1  0.50000000  0.03455200  0.75000000  1
  Cu  Cu9  1  0.00000000  0.46544800  0.25000000  1
  Cu  Cu10  1  0.00000000  0.53455200  0.75000000  1
  Cu  Cu11  1  0.50000000  0.96544800  0.25000000  1
  S  S12  1  0.00000000  0.38062400  0.05118600  1
  S  S13  1  0.50000000  0.11937600  0.94881400  1
  S  S14  1  0.50000000  0.11937600  0.55118600  1
  S  S15  1  0.00000000  0.06310800  0.25000000  1
  S  S16  1  0.50000000  0.43689200  0.75000000  1
  S  S17  1  0.00000000  0.38062400  0.44881400  1
  S  S18  1  0.50000000  0.88062400  0.05118600  1
  S  S19  1  0.00000000  0.61937600  0.94881400  1
  S  S20  1  0.00000000  0.61937600  0.55118600  1
  S  S21  1  0.50000000  0.56310800  0.25000000  1
  S  S22  1  0.00000000  0.93689200  0.75000000  1
  S  S23  1  0.50000000  0.88062400  0.44881400  1
