# generated using pymatgen
data_Rb2Sn2Se5
_symmetry_space_group_name_H-M   'P 1'
_cell_length_a   11.80035000
_cell_length_b   8.79752000
_cell_length_c   12.27022019
_cell_angle_alpha   90.00000000
_cell_angle_beta   108.17931610
_cell_angle_gamma   90.00000000
_symmetry_Int_Tables_number   1
_chemical_formula_structural   Rb2Sn2Se5
_chemical_formula_sum   'Rb8 Sn8 Se20'
_cell_volume   1210.23539954
_cell_formula_units_Z   4
loop_
 _symmetry_equiv_pos_site_id
 _symmetry_equiv_pos_as_xyz
  1  'x, y, z'
loop_
 _atom_site_type_symbol
 _atom_site_label
 _atom_site_symmetry_multiplicity
 _atom_site_fract_x
 _atom_site_fract_y
 _atom_site_fract_z
 _atom_site_occupancy
  Rb  Rb0  1  0.73328800  0.67485300  0.82045000  1
  Rb  Rb1  1  0.26671200  0.67485300  0.67955000  1
  Rb  Rb2  1  0.26671200  0.32514700  0.17955000  1
  Rb  Rb3  1  0.73328800  0.32514700  0.32045000  1
  Rb  Rb4  1  0.23328800  0.17485300  0.82045000  1
  Rb  Rb5  1  0.76671200  0.17485300  0.67955000  1
  Rb  Rb6  1  0.76671200  0.82514700  0.17955000  1
  Rb  Rb7  1  0.23328800  0.82514700  0.32045000  1
  Sn  Sn8  1  0.90307850  0.35156850  0.05618200  1
  Sn  Sn9  1  0.09692150  0.35156850  0.44381800  1
  Sn  Sn10  1  0.09692150  0.64843150  0.94381800  1
  Sn  Sn11  1  0.90307850  0.64843150  0.55618200  1
  Sn  Sn12  1  0.40307850  0.85156850  0.05618200  1
  Sn  Sn13  1  0.59692150  0.85156850  0.44381800  1
  Sn  Sn14  1  0.59692150  0.14843150  0.94381800  1
  Sn  Sn15  1  0.40307850  0.14843150  0.55618200  1
  Se  Se16  1  0.00000000  0.19834700  0.25000000  1
  Se  Se17  1  0.00000000  0.80165300  0.75000000  1
  Se  Se18  1  0.99086550  0.36650550  0.88504700  1
  Se  Se19  1  0.00913450  0.36650550  0.61495300  1
  Se  Se20  1  0.00913450  0.63349450  0.11495300  1
  Se  Se21  1  0.99086550  0.63349450  0.38504700  1
  Se  Se22  1  0.68856200  0.44003600  0.03098500  1
  Se  Se23  1  0.31143800  0.44003600  0.46901500  1
  Se  Se24  1  0.68856200  0.55996400  0.53098500  1
  Se  Se25  1  0.31143800  0.55996400  0.96901500  1
  Se  Se26  1  0.50000000  0.69834700  0.25000000  1
  Se  Se27  1  0.50000000  0.30165300  0.75000000  1
  Se  Se28  1  0.49086550  0.86650550  0.88504700  1
  Se  Se29  1  0.50913450  0.86650550  0.61495300  1
  Se  Se30  1  0.50913450  0.13349450  0.11495300  1
  Se  Se31  1  0.49086550  0.13349450  0.38504700  1
  Se  Se32  1  0.18856200  0.94003600  0.03098500  1
  Se  Se33  1  0.81143800  0.94003600  0.46901500  1
  Se  Se34  1  0.18856200  0.05996400  0.53098500  1
  Se  Se35  1  0.81143800  0.05996400  0.96901500  1
