# generated using pymatgen
data_KZrCuSe3
_symmetry_space_group_name_H-M   'P 1'
_cell_length_a   3.90731600
_cell_length_b   14.95473800
_cell_length_c   10.24176800
_cell_angle_alpha   90.00000000
_cell_angle_beta   90.00000000
_cell_angle_gamma   90.00000000
_symmetry_Int_Tables_number   1
_chemical_formula_structural   KZrCuSe3
_chemical_formula_sum   'K4 Zr4 Cu4 Se12'
_cell_volume   598.45607287
_cell_formula_units_Z   4
loop_
 _symmetry_equiv_pos_site_id
 _symmetry_equiv_pos_as_xyz
  1  'x, y, z'
loop_
 _atom_site_type_symbol
 _atom_site_label
 _atom_site_symmetry_multiplicity
 _atom_site_fract_x
 _atom_site_fract_y
 _atom_site_fract_z
 _atom_site_occupancy
  K  K0  1  0.50000000  0.24927300  0.25000000  1
  K  K1  1  0.00000000  0.25072700  0.75000000  1
  K  K2  1  0.00000000  0.74927300  0.25000000  1
  K  K3  1  0.50000000  0.75072700  0.75000000  1
  Zr  Zr4  1  0.00000000  0.00000000  0.50000000  1
  Zr  Zr5  1  0.00000000  0.00000000  0.00000000  1
  Zr  Zr6  1  0.50000000  0.50000000  0.50000000  1
  Zr  Zr7  1  0.50000000  0.50000000  0.00000000  1
  Cu  Cu8  1  0.00000000  0.46851300  0.25000000  1
  Cu  Cu9  1  0.50000000  0.03148700  0.75000000  1
  Cu  Cu10  1  0.50000000  0.96851300  0.25000000  1
  Cu  Cu11  1  0.00000000  0.53148700  0.75000000  1
  Se  Se12  1  0.00000000  0.37759800  0.44592300  1
  Se  Se13  1  0.50000000  0.43170900  0.75000000  1
  Se  Se14  1  0.50000000  0.12240200  0.94592300  1
  Se  Se15  1  0.50000000  0.12240200  0.55407700  1
  Se  Se16  1  0.00000000  0.37759800  0.05407700  1
  Se  Se17  1  0.00000000  0.06829100  0.25000000  1
  Se  Se18  1  0.50000000  0.87759800  0.44592300  1
  Se  Se19  1  0.00000000  0.93170900  0.75000000  1
  Se  Se20  1  0.00000000  0.62240200  0.94592300  1
  Se  Se21  1  0.00000000  0.62240200  0.55407700  1
  Se  Se22  1  0.50000000  0.87759800  0.05407700  1
  Se  Se23  1  0.50000000  0.56829100  0.25000000  1
