# generated using pymatgen
data_K2PAu
_symmetry_space_group_name_H-M   'P 1'
_cell_length_a   7.41316600
_cell_length_b   9.89945000
_cell_length_c   6.35637900
_cell_angle_alpha   90.00000000
_cell_angle_beta   90.00000000
_cell_angle_gamma   90.00000000
_symmetry_Int_Tables_number   1
_chemical_formula_structural   K2PAu
_chemical_formula_sum   'K8 P4 Au4'
_cell_volume   466.47092110
_cell_formula_units_Z   4
loop_
 _symmetry_equiv_pos_site_id
 _symmetry_equiv_pos_as_xyz
  1  'x, y, z'
loop_
 _atom_site_type_symbol
 _atom_site_label
 _atom_site_symmetry_multiplicity
 _atom_site_fract_x
 _atom_site_fract_y
 _atom_site_fract_z
 _atom_site_occupancy
  K  K0  1  0.64525750  0.67361850  0.75000000  1
  K  K1  1  0.35474250  0.32638150  0.25000000  1
  K  K2  1  0.35474250  0.67361850  0.25000000  1
  K  K3  1  0.64525750  0.32638150  0.75000000  1
  K  K4  1  0.14525750  0.17361850  0.75000000  1
  K  K5  1  0.85474250  0.82638150  0.25000000  1
  K  K6  1  0.85474250  0.17361850  0.25000000  1
  K  K7  1  0.14525750  0.82638150  0.75000000  1
  P  P8  1  0.25298300  0.00000000  0.25000000  1
  P  P9  1  0.74701700  0.00000000  0.75000000  1
  P  P10  1  0.75298300  0.50000000  0.25000000  1
  P  P11  1  0.24701700  0.50000000  0.75000000  1
  Au  Au12  1  0.50000000  0.00000000  0.50000000  1
  Au  Au13  1  0.50000000  0.00000000  0.00000000  1
  Au  Au14  1  0.00000000  0.50000000  0.50000000  1
  Au  Au15  1  0.00000000  0.50000000  0.00000000  1
