# generated using pymatgen
data_Na2CrH2F8
_symmetry_space_group_name_H-M   'P 1'
_cell_length_a   7.43367200
_cell_length_b   8.05374800
_cell_length_c   5.48620687
_cell_angle_alpha   90.00000000
_cell_angle_beta   114.29507395
_cell_angle_gamma   90.00000000
_symmetry_Int_Tables_number   1
_chemical_formula_structural   Na2CrH2F8
_chemical_formula_sum   'Na4 Cr2 H4 F16'
_cell_volume   299.36502032
_cell_formula_units_Z   2
loop_
 _symmetry_equiv_pos_site_id
 _symmetry_equiv_pos_as_xyz
  1  'x, y, z'
loop_
 _atom_site_type_symbol
 _atom_site_label
 _atom_site_symmetry_multiplicity
 _atom_site_fract_x
 _atom_site_fract_y
 _atom_site_fract_z
 _atom_site_occupancy
  Na  Na0  1  0.50000000  0.76242100  0.50000000  1
  Na  Na1  1  0.50000000  0.23757900  0.50000000  1
  Na  Na2  1  0.00000000  0.26242100  0.50000000  1
  Na  Na3  1  0.00000000  0.73757900  0.50000000  1
  Cr  Cr4  1  0.00000000  0.00000000  0.00000000  1
  Cr  Cr5  1  0.50000000  0.50000000  0.00000000  1
  H  H6  1  0.65392700  0.00000000  0.21786300  1
  H  H7  1  0.34607300  0.00000000  0.78213700  1
  H  H8  1  0.15392700  0.50000000  0.21786300  1
  H  H9  1  0.84607300  0.50000000  0.78213700  1
  F  F10  1  0.65994100  0.66164200  0.22065200  1
  F  F11  1  0.85643000  0.00000000  0.22224700  1
  F  F12  1  0.34005900  0.66164200  0.77934800  1
  F  F13  1  0.54012600  0.00000000  0.26499400  1
  F  F14  1  0.45987400  0.00000000  0.73500600  1
  F  F15  1  0.65994100  0.33835800  0.22065200  1
  F  F16  1  0.14357000  0.00000000  0.77775300  1
  F  F17  1  0.34005900  0.33835800  0.77934800  1
  F  F18  1  0.15994100  0.16164200  0.22065200  1
  F  F19  1  0.35643000  0.50000000  0.22224700  1
  F  F20  1  0.84005900  0.16164200  0.77934800  1
  F  F21  1  0.04012600  0.50000000  0.26499400  1
  F  F22  1  0.95987400  0.50000000  0.73500600  1
  F  F23  1  0.15994100  0.83835800  0.22065200  1
  F  F24  1  0.64357000  0.50000000  0.77775300  1
  F  F25  1  0.84005900  0.83835800  0.77934800  1
