# generated using pymatgen
data_YMoN3
_symmetry_space_group_name_H-M   'P 1'
_cell_length_a   11.15711000
_cell_length_b   9.61011000
_cell_length_c   6.29992126
_cell_angle_alpha   90.00000000
_cell_angle_beta   112.20466390
_cell_angle_gamma   90.00000000
_symmetry_Int_Tables_number   1
_chemical_formula_structural   YMoN3
_chemical_formula_sum   'Y8 Mo8 N24'
_cell_volume   625.39017387
_cell_formula_units_Z   8
loop_
 _symmetry_equiv_pos_site_id
 _symmetry_equiv_pos_as_xyz
  1  'x, y, z'
loop_
 _atom_site_type_symbol
 _atom_site_label
 _atom_site_symmetry_multiplicity
 _atom_site_fract_x
 _atom_site_fract_y
 _atom_site_fract_z
 _atom_site_occupancy
  Y  Y0  1  0.00000000  0.08790500  0.25000000  1
  Y  Y1  1  0.00000000  0.29317000  0.75000000  1
  Y  Y2  1  0.00000000  0.91209500  0.75000000  1
  Y  Y3  1  0.00000000  0.70683000  0.25000000  1
  Y  Y4  1  0.50000000  0.58790500  0.25000000  1
  Y  Y5  1  0.50000000  0.79317000  0.75000000  1
  Y  Y6  1  0.50000000  0.41209500  0.75000000  1
  Y  Y7  1  0.50000000  0.20683000  0.25000000  1
  Mo  Mo8  1  0.20976300  0.41009200  0.22608700  1
  Mo  Mo9  1  0.79023700  0.58990800  0.77391300  1
  Mo  Mo10  1  0.20976300  0.58990800  0.72608700  1
  Mo  Mo11  1  0.79023700  0.41009200  0.27391300  1
  Mo  Mo12  1  0.70976300  0.91009200  0.22608700  1
  Mo  Mo13  1  0.29023700  0.08990800  0.77391300  1
  Mo  Mo14  1  0.70976300  0.08990800  0.72608700  1
  Mo  Mo15  1  0.29023700  0.91009200  0.27391300  1
  N  N16  1  0.61006250  0.39048550  0.15453500  1
  N  N17  1  0.85543850  0.48938650  0.56976700  1
  N  N18  1  0.14456150  0.51061350  0.43023300  1
  N  N19  1  0.86878150  0.24507950  0.33874900  1
  N  N20  1  0.38993750  0.39048550  0.34546500  1
  N  N21  1  0.38993750  0.60951450  0.84546500  1
  N  N22  1  0.86878150  0.75492050  0.83874900  1
  N  N23  1  0.13121850  0.24507950  0.16125100  1
  N  N24  1  0.61006250  0.60951450  0.65453500  1
  N  N25  1  0.85543850  0.51061350  0.06976700  1
  N  N26  1  0.14456150  0.48938650  0.93023300  1
  N  N27  1  0.13121850  0.75492050  0.66125100  1
  N  N28  1  0.11006250  0.89048550  0.15453500  1
  N  N29  1  0.35543850  0.98938650  0.56976700  1
  N  N30  1  0.64456150  0.01061350  0.43023300  1
  N  N31  1  0.36878150  0.74507950  0.33874900  1
  N  N32  1  0.88993750  0.89048550  0.34546500  1
  N  N33  1  0.88993750  0.10951450  0.84546500  1
  N  N34  1  0.36878150  0.25492050  0.83874900  1
  N  N35  1  0.63121850  0.74507950  0.16125100  1
  N  N36  1  0.11006250  0.10951450  0.65453500  1
  N  N37  1  0.35543850  0.01061350  0.06976700  1
  N  N38  1  0.64456150  0.98938650  0.93023300  1
  N  N39  1  0.63121850  0.25492050  0.66125100  1
