# generated using pymatgen
data_BaHfS3
_symmetry_space_group_name_H-M   'P 1'
_cell_length_a   3.88351800
_cell_length_b   8.80353500
_cell_length_c   14.51503900
_cell_angle_alpha   90.00000000
_cell_angle_beta   90.00000000
_cell_angle_gamma   90.00000000
_symmetry_Int_Tables_number   1
_chemical_formula_structural   BaHfS3
_chemical_formula_sum   'Ba4 Hf4 S12'
_cell_volume   496.25011988
_cell_formula_units_Z   4
loop_
 _symmetry_equiv_pos_site_id
 _symmetry_equiv_pos_as_xyz
  1  'x, y, z'
loop_
 _atom_site_type_symbol
 _atom_site_label
 _atom_site_symmetry_multiplicity
 _atom_site_fract_x
 _atom_site_fract_y
 _atom_site_fract_z
 _atom_site_occupancy
  Ba  Ba0  1  0.75000000  0.06425400  0.17527400  1
  Ba  Ba1  1  0.25000000  0.93574600  0.82472600  1
  Ba  Ba2  1  0.75000000  0.56425400  0.32472600  1
  Ba  Ba3  1  0.25000000  0.43574600  0.67527400  1
  Hf  Hf4  1  0.25000000  0.16342300  0.44237400  1
  Hf  Hf5  1  0.75000000  0.83657700  0.55762600  1
  Hf  Hf6  1  0.25000000  0.66342300  0.05762600  1
  Hf  Hf7  1  0.75000000  0.33657700  0.94237400  1
  S  S8  1  0.75000000  0.32610100  0.50522900  1
  S  S9  1  0.25000000  0.67389900  0.49477100  1
  S  S10  1  0.75000000  0.82610100  0.99477100  1
  S  S11  1  0.25000000  0.17389900  0.00522900  1
  S  S12  1  0.25000000  0.02043900  0.60172900  1
  S  S13  1  0.75000000  0.97956100  0.39827100  1
  S  S14  1  0.25000000  0.52043900  0.89827100  1
  S  S15  1  0.75000000  0.47956100  0.10172900  1
  S  S16  1  0.25000000  0.28161300  0.29051900  1
  S  S17  1  0.75000000  0.71838700  0.70948100  1
  S  S18  1  0.25000000  0.78161300  0.20948100  1
  S  S19  1  0.75000000  0.21838700  0.79051900  1
