# generated using pymatgen
data_Sr(AuO2)2
_symmetry_space_group_name_H-M   'P 1'
_cell_length_a   6.31082000
_cell_length_b   6.31082000
_cell_length_c   10.32570200
_cell_angle_alpha   90.00000000
_cell_angle_beta   90.00000000
_cell_angle_gamma   90.00000000
_symmetry_Int_Tables_number   1
_chemical_formula_structural   Sr(AuO2)2
_chemical_formula_sum   'Sr4 Au8 O16'
_cell_volume   411.23604484
_cell_formula_units_Z   4
loop_
 _symmetry_equiv_pos_site_id
 _symmetry_equiv_pos_as_xyz
  1  'x, y, z'
loop_
 _atom_site_type_symbol
 _atom_site_label
 _atom_site_symmetry_multiplicity
 _atom_site_fract_x
 _atom_site_fract_y
 _atom_site_fract_z
 _atom_site_occupancy
  Sr  Sr0  1  0.00000000  0.50000000  0.25000000  1
  Sr  Sr1  1  0.00000000  0.00000000  0.00000000  1
  Sr  Sr2  1  0.50000000  0.00000000  0.75000000  1
  Sr  Sr3  1  0.50000000  0.50000000  0.50000000  1
  Au  Au4  1  0.25000000  0.00000000  0.37500000  1
  Au  Au5  1  0.50000000  0.75000000  0.12500000  1
  Au  Au6  1  0.75000000  0.00000000  0.37500000  1
  Au  Au7  1  0.50000000  0.25000000  0.12500000  1
  Au  Au8  1  0.75000000  0.50000000  0.87500000  1
  Au  Au9  1  0.00000000  0.25000000  0.62500000  1
  Au  Au10  1  0.25000000  0.50000000  0.87500000  1
  Au  Au11  1  0.00000000  0.75000000  0.62500000  1
  O  O12  1  0.65333350  0.28178250  0.29807150  1
  O  O13  1  0.21821750  0.65333350  0.04807150  1
  O  O14  1  0.78178250  0.34666650  0.04807150  1
  O  O15  1  0.34666650  0.71821750  0.29807150  1
  O  O16  1  0.84666650  0.71821750  0.45192850  1
  O  O17  1  0.78178250  0.84666650  0.20192850  1
  O  O18  1  0.15333350  0.28178250  0.45192850  1
  O  O19  1  0.21821750  0.15333350  0.20192850  1
  O  O20  1  0.15333350  0.78178250  0.79807150  1
  O  O21  1  0.71821750  0.15333350  0.54807150  1
  O  O22  1  0.28178250  0.84666650  0.54807150  1
  O  O23  1  0.84666650  0.21821750  0.79807150  1
  O  O24  1  0.34666650  0.21821750  0.95192850  1
  O  O25  1  0.28178250  0.34666650  0.70192850  1
  O  O26  1  0.65333350  0.78178250  0.95192850  1
  O  O27  1  0.71821750  0.65333350  0.70192850  1
