# generated using pymatgen
data_CuBiO2
_symmetry_space_group_name_H-M   'P 1'
_cell_length_a   3.96819400
_cell_length_b   6.03710000
_cell_length_c   11.38939600
_cell_angle_alpha   90.00000000
_cell_angle_beta   90.00000000
_cell_angle_gamma   90.00000000
_symmetry_Int_Tables_number   1
_chemical_formula_structural   CuBiO2
_chemical_formula_sum   'Cu4 Bi4 O8'
_cell_volume   272.84874407
_cell_formula_units_Z   4
loop_
 _symmetry_equiv_pos_site_id
 _symmetry_equiv_pos_as_xyz
  1  'x, y, z'
loop_
 _atom_site_type_symbol
 _atom_site_label
 _atom_site_symmetry_multiplicity
 _atom_site_fract_x
 _atom_site_fract_y
 _atom_site_fract_z
 _atom_site_occupancy
  Cu  Cu0  1  0.00000000  0.27625400  0.00000000  1
  Cu  Cu1  1  0.00000000  0.72374600  0.00000000  1
  Cu  Cu2  1  0.50000000  0.77625400  0.50000000  1
  Cu  Cu3  1  0.50000000  0.22374600  0.50000000  1
  Bi  Bi4  1  0.00000000  0.50000000  0.69633200  1
  Bi  Bi5  1  0.50000000  0.00000000  0.80366800  1
  Bi  Bi6  1  0.50000000  0.00000000  0.19633200  1
  Bi  Bi7  1  0.00000000  0.50000000  0.30366800  1
  O  O8  1  0.00000000  0.24597400  0.83990500  1
  O  O9  1  0.00000000  0.75402600  0.83990500  1
  O  O10  1  0.50000000  0.74597400  0.66009500  1
  O  O11  1  0.50000000  0.25402600  0.66009500  1
  O  O12  1  0.50000000  0.74597400  0.33990500  1
  O  O13  1  0.50000000  0.25402600  0.33990500  1
  O  O14  1  0.00000000  0.24597400  0.16009500  1
  O  O15  1  0.00000000  0.75402600  0.16009500  1
