# generated using pymatgen
data_K2NaAlP2
_symmetry_space_group_name_H-M   'P 1'
_cell_length_a   6.31799800
_cell_length_b   6.66650600
_cell_length_c   14.70097200
_cell_angle_alpha   90.00000000
_cell_angle_beta   90.00000000
_cell_angle_gamma   90.00000000
_symmetry_Int_Tables_number   1
_chemical_formula_structural   K2NaAlP2
_chemical_formula_sum   'K8 Na4 Al4 P8'
_cell_volume   619.18982179
_cell_formula_units_Z   4
loop_
 _symmetry_equiv_pos_site_id
 _symmetry_equiv_pos_as_xyz
  1  'x, y, z'
loop_
 _atom_site_type_symbol
 _atom_site_label
 _atom_site_symmetry_multiplicity
 _atom_site_fract_x
 _atom_site_fract_y
 _atom_site_fract_z
 _atom_site_occupancy
  K  K0  1  0.50000000  0.74376600  0.17641400  1
  K  K1  1  0.00000000  0.75623400  0.32358600  1
  K  K2  1  0.50000000  0.24376600  0.32358600  1
  K  K3  1  0.00000000  0.25623400  0.17641400  1
  K  K4  1  0.00000000  0.24376600  0.67641400  1
  K  K5  1  0.50000000  0.25623400  0.82358600  1
  K  K6  1  0.00000000  0.74376600  0.82358600  1
  K  K7  1  0.50000000  0.75623400  0.67641400  1
  Na  Na8  1  0.75000000  0.50000000  0.00000000  1
  Na  Na9  1  0.25000000  0.50000000  0.00000000  1
  Na  Na10  1  0.25000000  0.00000000  0.50000000  1
  Na  Na11  1  0.75000000  0.00000000  0.50000000  1
  Al  Al12  1  0.25000000  0.00000000  0.00000000  1
  Al  Al13  1  0.75000000  0.00000000  0.00000000  1
  Al  Al14  1  0.75000000  0.50000000  0.50000000  1
  Al  Al15  1  0.25000000  0.50000000  0.50000000  1
  P  P16  1  0.00000000  0.30286900  0.40880500  1
  P  P17  1  0.50000000  0.69713100  0.40880500  1
  P  P18  1  0.00000000  0.80286900  0.09119500  1
  P  P19  1  0.50000000  0.19713100  0.09119500  1
  P  P20  1  0.50000000  0.80286900  0.90880500  1
  P  P21  1  0.00000000  0.19713100  0.90880500  1
  P  P22  1  0.50000000  0.30286900  0.59119500  1
  P  P23  1  0.00000000  0.69713100  0.59119500  1
