# generated using pymatgen
data_LiAg(CO2)2
_symmetry_space_group_name_H-M   'P 1'
_cell_length_a   3.79232300
_cell_length_b   5.32797300
_cell_length_c   10.23992623
_cell_angle_alpha   90.00000000
_cell_angle_beta   93.56877131
_cell_angle_gamma   90.00000000
_symmetry_Int_Tables_number   1
_chemical_formula_structural   LiAg(CO2)2
_chemical_formula_sum   'Li2 Ag2 C4 O8'
_cell_volume   206.50052649
_cell_formula_units_Z   2
loop_
 _symmetry_equiv_pos_site_id
 _symmetry_equiv_pos_as_xyz
  1  'x, y, z'
loop_
 _atom_site_type_symbol
 _atom_site_label
 _atom_site_symmetry_multiplicity
 _atom_site_fract_x
 _atom_site_fract_y
 _atom_site_fract_z
 _atom_site_occupancy
  Li  Li0  1  0.90216700  0.19160600  0.14205200  1
  Li  Li1  1  0.90216700  0.80839400  0.64205200  1
  Ag  Ag2  1  0.33272600  0.34456400  0.84627700  1
  Ag  Ag3  1  0.33272600  0.65543600  0.34627700  1
  C  C4  1  0.06175400  0.28744700  0.56137600  1
  C  C5  1  0.06175400  0.71255300  0.06137600  1
  C  C6  1  0.86201300  0.16424500  0.43892000  1
  C  C7  1  0.86201300  0.83575500  0.93892000  1
  O  O8  1  0.72500600  0.04703800  0.96242200  1
  O  O9  1  0.72500600  0.95296200  0.46242200  1
  O  O10  1  0.11282900  0.85659700  0.15949700  1
  O  O11  1  0.11282900  0.14340300  0.65949700  1
  O  O12  1  0.15381400  0.48368800  0.05844500  1
  O  O13  1  0.15381400  0.51631200  0.55844500  1
  O  O14  1  0.84965000  0.71788000  0.83102200  1
  O  O15  1  0.84965000  0.28212000  0.33102200  1
