# generated using pymatgen
data_NdZnPO
_symmetry_space_group_name_H-M   'P 1'
_cell_length_a   4.00228354
_cell_length_b   4.00228354
_cell_length_c   31.22288904
_cell_angle_alpha   90.00000000
_cell_angle_beta   90.00000000
_cell_angle_gamma   120.00000000
_symmetry_Int_Tables_number   1
_chemical_formula_structural   NdZnPO
_chemical_formula_sum   'Nd6 Zn6 P6 O6'
_cell_volume   433.13115360
_cell_formula_units_Z   6
loop_
 _symmetry_equiv_pos_site_id
 _symmetry_equiv_pos_as_xyz
  1  'x, y, z'
loop_
 _atom_site_type_symbol
 _atom_site_label
 _atom_site_symmetry_multiplicity
 _atom_site_fract_x
 _atom_site_fract_y
 _atom_site_fract_z
 _atom_site_occupancy
  Nd  Nd0  1  0.33333333  0.66666667  0.28536167  1
  Nd  Nd1  1  0.33333333  0.66666667  0.04797167  1
  Nd  Nd2  1  0.00000000  0.00000000  0.61869500  1
  Nd  Nd3  1  0.00000000  0.00000000  0.38130500  1
  Nd  Nd4  1  0.66666667  0.33333333  0.95202833  1
  Nd  Nd5  1  0.66666667  0.33333333  0.71463833  1
  Zn  Zn6  1  0.00000000  0.00000000  0.19612300  1
  Zn  Zn7  1  0.66666667  0.33333333  0.13721033  1
  Zn  Zn8  1  0.66666667  0.33333333  0.52945633  1
  Zn  Zn9  1  0.33333333  0.66666667  0.47054367  1
  Zn  Zn10  1  0.33333333  0.66666667  0.86278967  1
  Zn  Zn11  1  0.00000000  0.00000000  0.80387700  1
  P  P12  1  0.00000000  0.00000000  0.11418000  1
  P  P13  1  0.66666667  0.33333333  0.21915333  1
  P  P14  1  0.66666667  0.33333333  0.44751333  1
  P  P15  1  0.33333333  0.66666667  0.55248667  1
  P  P16  1  0.33333333  0.66666667  0.78084667  1
  P  P17  1  0.00000000  0.00000000  0.88582000  1
  O  O18  1  0.66666667  0.33333333  0.02826633  1
  O  O19  1  0.00000000  0.00000000  0.30506700  1
  O  O20  1  0.33333333  0.66666667  0.36159967  1
  O  O21  1  0.66666667  0.33333333  0.63840033  1
  O  O22  1  0.00000000  0.00000000  0.69493300  1
  O  O23  1  0.33333333  0.66666667  0.97173367  1
