# generated using pymatgen
data_K3V(SO5)2
_symmetry_space_group_name_H-M   'P 1'
_cell_length_a   7.53447600
_cell_length_b   7.39517000
_cell_length_c   10.23277004
_cell_angle_alpha   90.00000000
_cell_angle_beta   103.74137610
_cell_angle_gamma   90.00000000
_symmetry_Int_Tables_number   1
_chemical_formula_structural   K3V(SO5)2
_chemical_formula_sum   'K6 V2 S4 O20'
_cell_volume   553.83783302
_cell_formula_units_Z   2
loop_
 _symmetry_equiv_pos_site_id
 _symmetry_equiv_pos_as_xyz
  1  'x, y, z'
loop_
 _atom_site_type_symbol
 _atom_site_label
 _atom_site_symmetry_multiplicity
 _atom_site_fract_x
 _atom_site_fract_y
 _atom_site_fract_z
 _atom_site_occupancy
  K  K0  1  0.41814400  0.38850000  0.58933900  1
  K  K1  1  0.58185600  0.88850000  0.41066100  1
  K  K2  1  0.01295100  0.65775300  0.73019500  1
  K  K3  1  0.98704900  0.15775300  0.26980500  1
  K  K4  1  0.29023000  0.08416900  0.95098400  1
  K  K5  1  0.70977000  0.58416900  0.04901600  1
  V  V6  1  0.24615100  0.65608500  0.14682300  1
  V  V7  1  0.75384900  0.15608500  0.85317700  1
  S  S8  1  0.04912500  0.68471900  0.34347600  1
  S  S9  1  0.95087500  0.18471900  0.65652400  1
  S  S10  1  0.46333200  0.34870800  0.25372200  1
  S  S11  1  0.53666800  0.84870800  0.74627800  1
  O  O12  1  0.32775600  0.41014100  0.11917200  1
  O  O13  1  0.67224400  0.91014100  0.88082800  1
  O  O14  1  0.47811000  0.51220100  0.34072200  1
  O  O15  1  0.52189000  0.01220100  0.65927800  1
  O  O16  1  0.05233300  0.51983900  0.25722800  1
  O  O17  1  0.94766700  0.01983900  0.74277200  1
  O  O18  1  0.18706000  0.80848400  0.29290200  1
  O  O19  1  0.81294000  0.30848400  0.70709800  1
  O  O20  1  0.11818200  0.64707600  0.48644000  1
  O  O21  1  0.88181800  0.14707600  0.51356000  1
  O  O22  1  0.91945300  0.18638100  0.99024900  1
  O  O23  1  0.08054700  0.68638100  0.00975100  1
  O  O24  1  0.37723600  0.19717500  0.30858800  1
  O  O25  1  0.62276400  0.69717500  0.69141200  1
  O  O26  1  0.63361100  0.29785700  0.21821700  1
  O  O27  1  0.36638900  0.79785700  0.78178300  1
  O  O28  1  0.87077500  0.77452000  0.31011000  1
  O  O29  1  0.12922500  0.27452000  0.68989000  1
  O  O30  1  0.41925500  0.78789200  0.13043600  1
  O  O31  1  0.58074500  0.28789200  0.86956400  1
