# generated using pymatgen
data_BaWN3
_symmetry_space_group_name_H-M   'P 1'
_cell_length_a   13.91411200
_cell_length_b   3.93444000
_cell_length_c   6.57394272
_cell_angle_alpha   90.00000000
_cell_angle_beta   105.16322998
_cell_angle_gamma   90.00000000
_symmetry_Int_Tables_number   1
_chemical_formula_structural   BaWN3
_chemical_formula_sum   'Ba4 W4 N12'
_cell_volume   347.35591790
_cell_formula_units_Z   4
loop_
 _symmetry_equiv_pos_site_id
 _symmetry_equiv_pos_as_xyz
  1  'x, y, z'
loop_
 _atom_site_type_symbol
 _atom_site_label
 _atom_site_symmetry_multiplicity
 _atom_site_fract_x
 _atom_site_fract_y
 _atom_site_fract_z
 _atom_site_occupancy
  Ba  Ba0  1  0.39411000  0.00000000  0.68557000  1
  Ba  Ba1  1  0.10589000  0.50000000  0.31443000  1
  Ba  Ba2  1  0.89411000  0.50000000  0.68557000  1
  Ba  Ba3  1  0.60589000  0.00000000  0.31443000  1
  W  W4  1  0.16047000  0.00000000  0.87936000  1
  W  W5  1  0.33953000  0.50000000  0.12064000  1
  W  W6  1  0.66047000  0.50000000  0.87936000  1
  W  W7  1  0.83953000  0.00000000  0.12064000  1
  N  N8  1  0.35417000  0.50000000  0.40195000  1
  N  N9  1  0.14583000  0.00000000  0.59805000  1
  N  N10  1  0.46653000  0.50000000  0.05524000  1
  N  N11  1  0.19057000  0.50000000  0.97698000  1
  N  N12  1  0.30943000  0.00000000  0.02302000  1
  N  N13  1  0.03347000  0.00000000  0.94476000  1
  N  N14  1  0.85417000  0.00000000  0.40195000  1
  N  N15  1  0.64583000  0.50000000  0.59805000  1
  N  N16  1  0.96653000  0.00000000  0.05524000  1
  N  N17  1  0.69057000  0.00000000  0.97698000  1
  N  N18  1  0.80943000  0.50000000  0.02302000  1
  N  N19  1  0.53347000  0.50000000  0.94476000  1
