# generated using pymatgen
data_KAg2SbS4
_symmetry_space_group_name_H-M   'P 1'
_cell_length_a   6.80332600
_cell_length_b   6.80332600
_cell_length_c   9.23839600
_cell_angle_alpha   90.00000000
_cell_angle_beta   90.00000000
_cell_angle_gamma   90.00000000
_symmetry_Int_Tables_number   1
_chemical_formula_structural   KAg2SbS4
_chemical_formula_sum   'K2 Ag4 Sb2 S8'
_cell_volume   427.60141915
_cell_formula_units_Z   2
loop_
 _symmetry_equiv_pos_site_id
 _symmetry_equiv_pos_as_xyz
  1  'x, y, z'
loop_
 _atom_site_type_symbol
 _atom_site_label
 _atom_site_symmetry_multiplicity
 _atom_site_fract_x
 _atom_site_fract_y
 _atom_site_fract_z
 _atom_site_occupancy
  K  K0  1  0.00000000  0.00000000  0.00000000  1
  K  K1  1  0.50000000  0.50000000  0.50000000  1
  Ag  Ag2  1  0.00000000  0.50000000  0.25000000  1
  Ag  Ag3  1  0.50000000  0.00000000  0.25000000  1
  Ag  Ag4  1  0.50000000  0.00000000  0.75000000  1
  Ag  Ag5  1  0.00000000  0.50000000  0.75000000  1
  Sb  Sb6  1  0.00000000  0.00000000  0.50000000  1
  Sb  Sb7  1  0.50000000  0.50000000  0.00000000  1
  S  S8  1  0.29902250  0.29902250  0.15065550  1
  S  S9  1  0.79902250  0.20097750  0.34934450  1
  S  S10  1  0.20097750  0.79902250  0.34934450  1
  S  S11  1  0.20097750  0.20097750  0.65065550  1
  S  S12  1  0.79902250  0.79902250  0.65065550  1
  S  S13  1  0.29902250  0.70097750  0.84934450  1
  S  S14  1  0.70097750  0.29902250  0.84934450  1
  S  S15  1  0.70097750  0.70097750  0.15065550  1
