# generated using pymatgen
data_BaAl2B2O7
_symmetry_space_group_name_H-M   'P 1'
_cell_length_a   5.05405630
_cell_length_b   5.05405630
_cell_length_c   24.93552219
_cell_angle_alpha   90.00000000
_cell_angle_beta   90.00000000
_cell_angle_gamma   120.00000000
_symmetry_Int_Tables_number   1
_chemical_formula_structural   BaAl2B2O7
_chemical_formula_sum   'Ba3 Al6 B6 O21'
_cell_volume   551.60634034
_cell_formula_units_Z   3
loop_
 _symmetry_equiv_pos_site_id
 _symmetry_equiv_pos_as_xyz
  1  'x, y, z'
loop_
 _atom_site_type_symbol
 _atom_site_label
 _atom_site_symmetry_multiplicity
 _atom_site_fract_x
 _atom_site_fract_y
 _atom_site_fract_z
 _atom_site_occupancy
  Ba  Ba0  1  0.00000000  0.00000000  0.00000000  1
  Ba  Ba1  1  0.66666667  0.33333333  0.33333333  1
  Ba  Ba2  1  0.33333333  0.66666667  0.66666667  1
  Al  Al3  1  0.33333333  0.66666667  0.09884167  1
  Al  Al4  1  0.33333333  0.66666667  0.23449167  1
  Al  Al5  1  0.00000000  0.00000000  0.43217500  1
  Al  Al6  1  1.00000000  0.00000000  0.56782500  1
  Al  Al7  1  0.66666667  0.33333333  0.76550833  1
  Al  Al8  1  0.66666667  0.33333333  0.90115833  1
  B  B9  1  0.00000000  0.00000000  0.26222500  1
  B  B10  1  0.66666667  0.33333333  0.07110833  1
  B  B11  1  0.66666667  0.33333333  0.59555833  1
  B  B12  1  0.33333333  0.66666667  0.40444167  1
  B  B13  1  0.33333333  0.66666667  0.92889167  1
  B  B14  1  0.00000000  0.00000000  0.73777500  1
  O  O15  1  0.57950467  0.02758733  0.06817933  1
  O  O16  1  0.97241267  0.55191733  0.06817933  1
  O  O17  1  0.44808267  0.42049533  0.06817933  1
  O  O18  1  0.33333333  0.66666667  0.16666667  1
  O  O19  1  0.08716200  0.78141600  0.26515400  1
  O  O20  1  0.21858400  0.30574600  0.26515400  1
  O  O21  1  0.69425400  0.91283800  0.26515400  1
  O  O22  1  0.24617133  0.36092067  0.40151267  1
  O  O23  1  0.63907933  0.88525067  0.40151267  1
  O  O24  1  0.11474933  0.75382867  0.40151267  1
  O  O25  1  0.00000000  0.00000000  0.50000000  1
  O  O26  1  0.75382867  0.11474933  0.59848733  1
  O  O27  1  0.88525067  0.63907933  0.59848733  1
  O  O28  1  0.36092067  0.24617133  0.59848733  1
  O  O29  1  0.91283800  0.69425400  0.73484600  1
  O  O30  1  0.30574600  0.21858400  0.73484600  1
  O  O31  1  0.78141600  0.08716200  0.73484600  1
  O  O32  1  0.66666667  0.33333333  0.83333333  1
  O  O33  1  0.42049533  0.44808267  0.93182067  1
  O  O34  1  0.55191733  0.97241267  0.93182067  1
  O  O35  1  0.02758733  0.57950467  0.93182067  1
