# generated using pymatgen
data_Pr6IrCl11
_symmetry_space_group_name_H-M   'P 1'
_cell_length_a   10.48255200
_cell_length_b   12.87684800
_cell_length_c   7.41165121
_cell_angle_alpha   90.00000000
_cell_angle_beta   94.56918461
_cell_angle_gamma   90.00000000
_symmetry_Int_Tables_number   1
_chemical_formula_structural   Pr6IrCl11
_chemical_formula_sum   'Pr12 Ir2 Cl22'
_cell_volume   997.26166434
_cell_formula_units_Z   2
loop_
 _symmetry_equiv_pos_site_id
 _symmetry_equiv_pos_as_xyz
  1  'x, y, z'
loop_
 _atom_site_type_symbol
 _atom_site_label
 _atom_site_symmetry_multiplicity
 _atom_site_fract_x
 _atom_site_fract_y
 _atom_site_fract_z
 _atom_site_occupancy
  Pr  Pr0  1  0.63768700  0.65464300  0.77214500  1
  Pr  Pr1  1  0.80443100  0.00000000  0.75992600  1
  Pr  Pr2  1  0.36231300  0.65464300  0.22785500  1
  Pr  Pr3  1  0.63768700  0.34535700  0.77214500  1
  Pr  Pr4  1  0.19556900  0.00000000  0.24007400  1
  Pr  Pr5  1  0.36231300  0.34535700  0.22785500  1
  Pr  Pr6  1  0.13768700  0.15464300  0.77214500  1
  Pr  Pr7  1  0.30443100  0.50000000  0.75992600  1
  Pr  Pr8  1  0.86231300  0.15464300  0.22785500  1
  Pr  Pr9  1  0.13768700  0.84535700  0.77214500  1
  Pr  Pr10  1  0.69556900  0.50000000  0.24007400  1
  Pr  Pr11  1  0.86231300  0.84535700  0.22785500  1
  Ir  Ir12  1  0.00000000  0.00000000  0.00000000  1
  Ir  Ir13  1  0.50000000  0.50000000  0.00000000  1
  Cl  Cl14  1  0.00000000  0.00000000  0.50000000  1
  Cl  Cl15  1  0.62245150  0.71700950  0.36415600  1
  Cl  Cl16  1  0.65258300  0.85596600  0.94381400  1
  Cl  Cl17  1  0.69336000  0.00000000  0.36514400  1
  Cl  Cl18  1  0.37754850  0.71700950  0.63584400  1
  Cl  Cl19  1  0.65258300  0.14403400  0.94381400  1
  Cl  Cl20  1  0.34741700  0.85596600  0.05618600  1
  Cl  Cl21  1  0.62245150  0.28299050  0.36415600  1
  Cl  Cl22  1  0.30664000  0.00000000  0.63485600  1
  Cl  Cl23  1  0.34741700  0.14403400  0.05618600  1
  Cl  Cl24  1  0.37754850  0.28299050  0.63584400  1
  Cl  Cl25  1  0.50000000  0.50000000  0.50000000  1
  Cl  Cl26  1  0.12245150  0.21700950  0.36415600  1
  Cl  Cl27  1  0.15258300  0.35596600  0.94381400  1
  Cl  Cl28  1  0.19336000  0.50000000  0.36514400  1
  Cl  Cl29  1  0.87754850  0.21700950  0.63584400  1
  Cl  Cl30  1  0.15258300  0.64403400  0.94381400  1
  Cl  Cl31  1  0.84741700  0.35596600  0.05618600  1
  Cl  Cl32  1  0.12245150  0.78299050  0.36415600  1
  Cl  Cl33  1  0.80664000  0.50000000  0.63485600  1
  Cl  Cl34  1  0.84741700  0.64403400  0.05618600  1
  Cl  Cl35  1  0.87754850  0.78299050  0.63584400  1
