# generated using pymatgen
data_Ge3Ir2Se3
_symmetry_space_group_name_H-M   'P 1'
_cell_length_a   12.26675106
_cell_length_b   12.26675106
_cell_length_c   15.08997137
_cell_angle_alpha   90.00000000
_cell_angle_beta   90.00000000
_cell_angle_gamma   120.00000000
_symmetry_Int_Tables_number   1
_chemical_formula_structural   Ge3Ir2Se3
_chemical_formula_sum   'Ge36 Ir24 Se36'
_cell_volume   1966.42846012
_cell_formula_units_Z   12
loop_
 _symmetry_equiv_pos_site_id
 _symmetry_equiv_pos_as_xyz
  1  'x, y, z'
loop_
 _atom_site_type_symbol
 _atom_site_label
 _atom_site_symmetry_multiplicity
 _atom_site_fract_x
 _atom_site_fract_y
 _atom_site_fract_z
 _atom_site_occupancy
  Ge  Ge0  1  0.06112900  0.60497100  0.10728800  1
  Ge  Ge1  1  0.39502900  0.45615800  0.10728800  1
  Ge  Ge2  1  0.54384200  0.93887100  0.10728800  1
  Ge  Ge3  1  0.60553767  0.72836233  0.22604533  1
  Ge  Ge4  1  0.27163767  0.87717533  0.22604533  1
  Ge  Ge5  1  0.12282467  0.39446233  0.22604533  1
  Ge  Ge6  1  0.49512867  0.17134633  0.17362933  1
  Ge  Ge7  1  0.82865367  0.32378233  0.17362933  1
  Ge  Ge8  1  0.67621767  0.50487133  0.17362933  1
  Ge  Ge9  1  0.17153800  0.16198700  0.15970400  1
  Ge  Ge10  1  0.83801300  0.00955100  0.15970400  1
  Ge  Ge11  1  0.99044900  0.82846200  0.15970400  1
  Ge  Ge12  1  0.72779567  0.93830433  0.44062133  1
  Ge  Ge13  1  0.06169567  0.78949133  0.44062133  1
  Ge  Ge14  1  0.21050867  0.27220433  0.44062133  1
  Ge  Ge15  1  0.27220433  0.06169567  0.55937867  1
  Ge  Ge16  1  0.93830433  0.21050867  0.55937867  1
  Ge  Ge17  1  0.78949133  0.72779567  0.55937867  1
  Ge  Ge18  1  0.16179533  0.50467967  0.50696267  1
  Ge  Ge19  1  0.49532033  0.65711567  0.50696267  1
  Ge  Ge20  1  0.34288433  0.83820467  0.50696267  1
  Ge  Ge21  1  0.83820467  0.49532033  0.49303733  1
  Ge  Ge22  1  0.50467967  0.34288433  0.49303733  1
  Ge  Ge23  1  0.65711567  0.16179533  0.49303733  1
  Ge  Ge24  1  0.39446233  0.27163767  0.77395467  1
  Ge  Ge25  1  0.72836233  0.12282467  0.77395467  1
  Ge  Ge26  1  0.87717533  0.60553767  0.77395467  1
  Ge  Ge27  1  0.93887100  0.39502900  0.89271200  1
  Ge  Ge28  1  0.60497100  0.54384200  0.89271200  1
  Ge  Ge29  1  0.45615800  0.06112900  0.89271200  1
  Ge  Ge30  1  0.82846200  0.83801300  0.84029600  1
  Ge  Ge31  1  0.16198700  0.99044900  0.84029600  1
  Ge  Ge32  1  0.00955100  0.17153800  0.84029600  1
  Ge  Ge33  1  0.50487133  0.82865367  0.82637067  1
  Ge  Ge34  1  0.17134633  0.67621767  0.82637067  1
  Ge  Ge35  1  0.32378233  0.49512867  0.82637067  1
  Ir  Ir36  1  0.33333333  0.66666667  0.41953867  1
  Ir  Ir37  1  0.33333333  0.66666667  0.91379467  1
  Ir  Ir38  1  0.17031667  0.33456833  0.08352733  1
  Ir  Ir39  1  0.66543167  0.83574833  0.08352733  1
  Ir  Ir40  1  0.16425167  0.82968333  0.08352733  1
  Ir  Ir41  1  0.49635000  0.99876500  0.24980600  1
  Ir  Ir42  1  0.00123500  0.49758500  0.24980600  1
  Ir  Ir43  1  0.50241500  0.50365000  0.24980600  1
  Ir  Ir44  1  0.00000000  0.00000000  0.75287200  1
  Ir  Ir45  1  0.00000000  0.00000000  0.24712800  1
  Ir  Ir46  1  0.83698333  0.66790167  0.41686067  1
  Ir  Ir47  1  0.33209833  0.16908167  0.41686067  1
  Ir  Ir48  1  0.83091833  0.16301667  0.41686067  1
  Ir  Ir49  1  0.16301667  0.33209833  0.58313933  1
  Ir  Ir50  1  0.66790167  0.83091833  0.58313933  1
  Ir  Ir51  1  0.16908167  0.83698333  0.58313933  1
  Ir  Ir52  1  0.66666667  0.33333333  0.08620533  1
  Ir  Ir53  1  0.66666667  0.33333333  0.58046133  1
  Ir  Ir54  1  0.50365000  0.00123500  0.75019400  1
  Ir  Ir55  1  0.99876500  0.50241500  0.75019400  1
  Ir  Ir56  1  0.49758500  0.49635000  0.75019400  1
  Ir  Ir57  1  0.82968333  0.66543167  0.91647267  1
  Ir  Ir58  1  0.33456833  0.16425167  0.91647267  1
  Ir  Ir59  1  0.83574833  0.17031667  0.91647267  1
  Se  Se60  1  0.14680267  0.50360633  0.00046833  1
  Se  Se61  1  0.49639367  0.64319633  0.00046833  1
  Se  Se62  1  0.35680367  0.85319733  0.00046833  1
  Se  Se63  1  0.51986400  0.82972700  0.33286500  1
  Se  Se64  1  0.17027300  0.69013700  0.33286500  1
  Se  Se65  1  0.30986300  0.48013600  0.33286500  1
  Se  Se66  1  0.38385000  0.26398700  0.26352100  1
  Se  Se67  1  0.73601300  0.11986300  0.26352100  1
  Se  Se68  1  0.88013700  0.61615000  0.26352100  1
  Se  Se69  1  0.28281667  0.06934633  0.06981233  1
  Se  Se70  1  0.93065367  0.21347033  0.06981233  1
  Se  Se71  1  0.78652967  0.71718333  0.06981233  1
  Se  Se72  1  0.81346933  0.83693967  0.33380167  1
  Se  Se73  1  0.16306033  0.97652967  0.33380167  1
  Se  Se74  1  0.02347033  0.18653067  0.33380167  1
  Se  Se75  1  0.18653067  0.16306033  0.66619833  1
  Se  Se76  1  0.83693967  0.02347033  0.66619833  1
  Se  Se77  1  0.97652967  0.81346933  0.66619833  1
  Se  Se78  1  0.05051667  0.59732033  0.59685433  1
  Se  Se79  1  0.40267967  0.45319633  0.59685433  1
  Se  Se80  1  0.54680367  0.94948333  0.59685433  1
  Se  Se81  1  0.94948333  0.40267967  0.40314567  1
  Se  Se82  1  0.59732033  0.54680367  0.40314567  1
  Se  Se83  1  0.45319633  0.05051667  0.40314567  1
  Se  Se84  1  0.48013600  0.17027300  0.66713500  1
  Se  Se85  1  0.82972700  0.30986300  0.66713500  1
  Se  Se86  1  0.69013700  0.51986400  0.66713500  1
  Se  Se87  1  0.85319733  0.49639367  0.99953167  1
  Se  Se88  1  0.50360633  0.35680367  0.99953167  1
  Se  Se89  1  0.64319633  0.14680267  0.99953167  1
  Se  Se90  1  0.71718333  0.93065367  0.93018767  1
  Se  Se91  1  0.06934633  0.78652967  0.93018767  1
  Se  Se92  1  0.21347033  0.28281667  0.93018767  1
  Se  Se93  1  0.61615000  0.73601300  0.73647900  1
  Se  Se94  1  0.26398700  0.88013700  0.73647900  1
  Se  Se95  1  0.11986300  0.38385000  0.73647900  1
