# generated using pymatgen
data_Rb2Sr2(CO3)3
_symmetry_space_group_name_H-M   'P 1'
_cell_length_a   9.94455600
_cell_length_b   9.94455600
_cell_length_c   9.94455600
_cell_angle_alpha   90.00000000
_cell_angle_beta   90.00000000
_cell_angle_gamma   90.00000000
_symmetry_Int_Tables_number   1
_chemical_formula_structural   Rb2Sr2(CO3)3
_chemical_formula_sum   'Rb8 Sr8 C12 O36'
_cell_volume   983.45885068
_cell_formula_units_Z   4
loop_
 _symmetry_equiv_pos_site_id
 _symmetry_equiv_pos_as_xyz
  1  'x, y, z'
loop_
 _atom_site_type_symbol
 _atom_site_label
 _atom_site_symmetry_multiplicity
 _atom_site_fract_x
 _atom_site_fract_y
 _atom_site_fract_z
 _atom_site_occupancy
  Rb  Rb0  1  0.43478450  0.43478450  0.43478450  1
  Rb  Rb1  1  0.06521550  0.56521550  0.93478450  1
  Rb  Rb2  1  0.93478450  0.06521550  0.56521550  1
  Rb  Rb3  1  0.56521550  0.93478450  0.06521550  1
  Rb  Rb4  1  0.93478450  0.93478450  0.93478450  1
  Rb  Rb5  1  0.56521550  0.06521550  0.43478450  1
  Rb  Rb6  1  0.43478450  0.56521550  0.06521550  1
  Rb  Rb7  1  0.06521550  0.43478450  0.56521550  1
  Sr  Sr8  1  0.21188600  0.21188600  0.21188600  1
  Sr  Sr9  1  0.78811400  0.28811400  0.21188600  1
  Sr  Sr10  1  0.21188600  0.78811400  0.28811400  1
  Sr  Sr11  1  0.28811400  0.21188600  0.78811400  1
  Sr  Sr12  1  0.71188600  0.71188600  0.71188600  1
  Sr  Sr13  1  0.28811400  0.78811400  0.71188600  1
  Sr  Sr14  1  0.71188600  0.28811400  0.78811400  1
  Sr  Sr15  1  0.78811400  0.71188600  0.28811400  1
  C  C16  1  0.25000000  0.08351300  0.50000000  1
  C  C17  1  0.75000000  0.41648700  0.50000000  1
  C  C18  1  0.50000000  0.25000000  0.08351300  1
  C  C19  1  0.08351300  0.50000000  0.25000000  1
  C  C20  1  0.41648700  0.50000000  0.75000000  1
  C  C21  1  0.50000000  0.75000000  0.41648700  1
  C  C22  1  0.75000000  0.58351300  0.00000000  1
  C  C23  1  0.25000000  0.91648700  0.00000000  1
  C  C24  1  0.00000000  0.75000000  0.58351300  1
  C  C25  1  0.58351300  0.00000000  0.75000000  1
  C  C26  1  0.91648700  0.00000000  0.25000000  1
  C  C27  1  0.00000000  0.25000000  0.91648700  1
  O  O28  1  0.25000000  0.21583100  0.50000000  1
  O  O29  1  0.75000000  0.28416900  0.50000000  1
  O  O30  1  0.50000000  0.25000000  0.21583100  1
  O  O31  1  0.21583100  0.50000000  0.25000000  1
  O  O32  1  0.28416900  0.50000000  0.75000000  1
  O  O33  1  0.50000000  0.75000000  0.28416900  1
  O  O34  1  0.28062100  0.02042800  0.39013100  1
  O  O35  1  0.71937900  0.47957200  0.39013100  1
  O  O36  1  0.28062100  0.97957200  0.10986900  1
  O  O37  1  0.21937900  0.02042800  0.60986900  1
  O  O38  1  0.39013100  0.28062100  0.02042800  1
  O  O39  1  0.02042800  0.39013100  0.28062100  1
  O  O40  1  0.60986900  0.21937900  0.02042800  1
  O  O41  1  0.47957200  0.39013100  0.71937900  1
  O  O42  1  0.39013100  0.71937900  0.47957200  1
  O  O43  1  0.97957200  0.10986900  0.28062100  1
  O  O44  1  0.10986900  0.28062100  0.97957200  1
  O  O45  1  0.02042800  0.60986900  0.21937900  1
  O  O46  1  0.75000000  0.71583100  0.00000000  1
  O  O47  1  0.25000000  0.78416900  0.00000000  1
  O  O48  1  0.00000000  0.75000000  0.71583100  1
  O  O49  1  0.71583100  0.00000000  0.75000000  1
  O  O50  1  0.78416900  0.00000000  0.25000000  1
  O  O51  1  0.00000000  0.25000000  0.78416900  1
  O  O52  1  0.78062100  0.52042800  0.89013100  1
  O  O53  1  0.21937900  0.97957200  0.89013100  1
  O  O54  1  0.78062100  0.47957200  0.60986900  1
  O  O55  1  0.71937900  0.52042800  0.10986900  1
  O  O56  1  0.89013100  0.78062100  0.52042800  1
  O  O57  1  0.52042800  0.89013100  0.78062100  1
  O  O58  1  0.10986900  0.71937900  0.52042800  1
  O  O59  1  0.97957200  0.89013100  0.21937900  1
  O  O60  1  0.89013100  0.21937900  0.97957200  1
  O  O61  1  0.47957200  0.60986900  0.78062100  1
  O  O62  1  0.60986900  0.78062100  0.47957200  1
  O  O63  1  0.52042800  0.10986900  0.71937900  1
