# generated using pymatgen
data_K4BeP2
_symmetry_space_group_name_H-M   'P 1'
_cell_length_a   5.59908686
_cell_length_b   5.59908686
_cell_length_c   25.28860165
_cell_angle_alpha   90.00000000
_cell_angle_beta   90.00000000
_cell_angle_gamma   120.00000000
_symmetry_Int_Tables_number   1
_chemical_formula_structural   K4BeP2
_chemical_formula_sum   'K12 Be3 P6'
_cell_volume   686.57795821
_cell_formula_units_Z   3
loop_
 _symmetry_equiv_pos_site_id
 _symmetry_equiv_pos_as_xyz
  1  'x, y, z'
loop_
 _atom_site_type_symbol
 _atom_site_label
 _atom_site_symmetry_multiplicity
 _atom_site_fract_x
 _atom_site_fract_y
 _atom_site_fract_z
 _atom_site_occupancy
  K  K0  1  0.33333333  0.66666667  0.28979067  1
  K  K1  1  0.33333333  0.66666667  0.04354267  1
  K  K2  1  0.66666667  0.33333333  0.12473433  1
  K  K3  1  0.00000000  0.00000000  0.20859900  1
  K  K4  1  0.00000000  0.00000000  0.62312400  1
  K  K5  1  0.00000000  0.00000000  0.37687600  1
  K  K6  1  0.33333333  0.66666667  0.45806767  1
  K  K7  1  0.66666667  0.33333333  0.54193233  1
  K  K8  1  0.66666667  0.33333333  0.95645733  1
  K  K9  1  0.66666667  0.33333333  0.71020933  1
  K  K10  1  0.00000000  0.00000000  0.79140100  1
  K  K11  1  0.33333333  0.66666667  0.87526567  1
  Be  Be12  1  0.00000000  0.00000000  0.00000000  1
  Be  Be13  1  0.66666667  0.33333333  0.33333333  1
  Be  Be14  1  0.33333333  0.66666667  0.66666667  1
  P  P15  1  0.66666667  0.33333333  0.25442333  1
  P  P16  1  0.00000000  0.00000000  0.07891000  1
  P  P17  1  0.33333333  0.66666667  0.58775667  1
  P  P18  1  0.66666667  0.33333333  0.41224333  1
  P  P19  1  0.00000000  0.00000000  0.92109000  1
  P  P20  1  0.33333333  0.66666667  0.74557667  1
