# generated using pymatgen
data_AgClO2
_symmetry_space_group_name_H-M   'P 1'
_cell_length_a   13.83404200
_cell_length_b   4.48367800
_cell_length_c   5.26940166
_cell_angle_alpha   90.00000000
_cell_angle_beta   97.26639723
_cell_angle_gamma   90.00000000
_symmetry_Int_Tables_number   1
_chemical_formula_structural   AgClO2
_chemical_formula_sum   'Ag4 Cl4 O8'
_cell_volume   324.22225256
_cell_formula_units_Z   4
loop_
 _symmetry_equiv_pos_site_id
 _symmetry_equiv_pos_as_xyz
  1  'x, y, z'
loop_
 _atom_site_type_symbol
 _atom_site_label
 _atom_site_symmetry_multiplicity
 _atom_site_fract_x
 _atom_site_fract_y
 _atom_site_fract_z
 _atom_site_occupancy
  Ag  Ag0  1  0.69885000  0.00000000  0.73376000  1
  Ag  Ag1  1  0.80115000  0.50000000  0.26624000  1
  Ag  Ag2  1  0.19885000  0.50000000  0.73376000  1
  Ag  Ag3  1  0.30115000  0.00000000  0.26624000  1
  Cl  Cl4  1  0.81006700  0.50000000  0.76886800  1
  Cl  Cl5  1  0.68993300  0.00000000  0.23113200  1
  Cl  Cl6  1  0.31006700  0.00000000  0.76886800  1
  Cl  Cl7  1  0.18993300  0.50000000  0.23113200  1
  O  O8  1  0.53801250  0.36142950  0.69232200  1
  O  O9  1  0.96198750  0.13857050  0.30767800  1
  O  O10  1  0.96198750  0.86142950  0.30767800  1
  O  O11  1  0.53801250  0.63857050  0.69232200  1
  O  O12  1  0.03801250  0.86142950  0.69232200  1
  O  O13  1  0.46198750  0.63857050  0.30767800  1
  O  O14  1  0.46198750  0.36142950  0.30767800  1
  O  O15  1  0.03801250  0.13857050  0.69232200  1
