# generated using pymatgen
data_BaSi4O9
_symmetry_space_group_name_H-M   'P 1'
_cell_length_a   6.57940983
_cell_length_b   6.57940983
_cell_length_c   9.46998800
_cell_angle_alpha   90.00000000
_cell_angle_beta   90.00000000
_cell_angle_gamma   120.00000000
_symmetry_Int_Tables_number   1
_chemical_formula_structural   BaSi4O9
_chemical_formula_sum   'Ba2 Si8 O18'
_cell_volume   355.02091456
_cell_formula_units_Z   2
loop_
 _symmetry_equiv_pos_site_id
 _symmetry_equiv_pos_as_xyz
  1  'x, y, z'
loop_
 _atom_site_type_symbol
 _atom_site_label
 _atom_site_symmetry_multiplicity
 _atom_site_fract_x
 _atom_site_fract_y
 _atom_site_fract_z
 _atom_site_occupancy
  Ba  Ba0  1  0.66666667  0.33333333  0.50000000  1
  Ba  Ba1  1  0.66666667  0.33333333  0.00000000  1
  Si  Si2  1  0.08915167  0.78869933  0.75000000  1
  Si  Si3  1  0.21130067  0.30045233  0.75000000  1
  Si  Si4  1  0.69954767  0.91084833  0.75000000  1
  Si  Si5  1  0.69954767  0.78869933  0.25000000  1
  Si  Si6  1  0.21130067  0.91084833  0.25000000  1
  Si  Si7  1  0.08915167  0.30045233  0.25000000  1
  Si  Si8  1  0.33333333  0.66666667  0.50000000  1
  Si  Si9  1  0.33333333  0.66666667  0.00000000  1
  O  O10  1  0.55689467  0.89387433  0.60694000  1
  O  O11  1  0.10612567  0.44310533  0.39306000  1
  O  O12  1  0.10612567  0.66302033  0.60694000  1
  O  O13  1  0.33697967  0.44310533  0.60694000  1
  O  O14  1  0.10612567  0.66302033  0.89306000  1
  O  O15  1  0.33697967  0.44310533  0.89306000  1
  O  O16  1  0.55689467  0.89387433  0.89306000  1
  O  O17  1  0.33697967  0.89387433  0.10694000  1
  O  O18  1  0.55689467  0.66302033  0.10694000  1
  O  O19  1  0.55689467  0.66302033  0.39306000  1
  O  O20  1  0.92264867  0.73565733  0.25000000  1
  O  O21  1  0.81300867  0.07735133  0.25000000  1
  O  O22  1  0.26434267  0.18699133  0.25000000  1
  O  O23  1  0.26434267  0.07735133  0.75000000  1
  O  O24  1  0.81300867  0.73565733  0.75000000  1
  O  O25  1  0.92264867  0.18699133  0.75000000  1
  O  O26  1  0.10612567  0.44310533  0.10694000  1
  O  O27  1  0.33697967  0.89387433  0.39306000  1
