# generated using pymatgen
data_KZrCuS3
_symmetry_space_group_name_H-M   'P 1'
_cell_length_a   3.76394400
_cell_length_b   14.31460000
_cell_length_c   9.83612900
_cell_angle_alpha   90.00000000
_cell_angle_beta   90.00000000
_cell_angle_gamma   90.00000000
_symmetry_Int_Tables_number   1
_chemical_formula_structural   KZrCuS3
_chemical_formula_sum   'K4 Zr4 Cu4 S12'
_cell_volume   529.96426440
_cell_formula_units_Z   4
loop_
 _symmetry_equiv_pos_site_id
 _symmetry_equiv_pos_as_xyz
  1  'x, y, z'
loop_
 _atom_site_type_symbol
 _atom_site_label
 _atom_site_symmetry_multiplicity
 _atom_site_fract_x
 _atom_site_fract_y
 _atom_site_fract_z
 _atom_site_occupancy
  K  K0  1  0.00000000  0.25466700  0.75000000  1
  K  K1  1  0.50000000  0.24533300  0.25000000  1
  K  K2  1  0.50000000  0.75466700  0.75000000  1
  K  K3  1  0.00000000  0.74533300  0.25000000  1
  Zr  Zr4  1  0.00000000  0.00000000  0.50000000  1
  Zr  Zr5  1  0.00000000  0.00000000  0.00000000  1
  Zr  Zr6  1  0.50000000  0.50000000  0.50000000  1
  Zr  Zr7  1  0.50000000  0.50000000  0.00000000  1
  Cu  Cu8  1  0.50000000  0.03256800  0.75000000  1
  Cu  Cu9  1  0.00000000  0.46743200  0.25000000  1
  Cu  Cu10  1  0.00000000  0.53256800  0.75000000  1
  Cu  Cu11  1  0.50000000  0.96743200  0.25000000  1
  S  S12  1  0.50000000  0.43543800  0.75000000  1
  S  S13  1  0.00000000  0.06456200  0.25000000  1
  S  S14  1  0.00000000  0.37993300  0.05477100  1
  S  S15  1  0.00000000  0.37993300  0.44522900  1
  S  S16  1  0.50000000  0.12006700  0.55477100  1
  S  S17  1  0.50000000  0.12006700  0.94522900  1
  S  S18  1  0.00000000  0.93543800  0.75000000  1
  S  S19  1  0.50000000  0.56456200  0.25000000  1
  S  S20  1  0.50000000  0.87993300  0.05477100  1
  S  S21  1  0.50000000  0.87993300  0.44522900  1
  S  S22  1  0.00000000  0.62006700  0.55477100  1
  S  S23  1  0.00000000  0.62006700  0.94522900  1
