# generated using pymatgen
data_K2BrCl6F
_symmetry_space_group_name_H-M   'P 1'
_cell_length_a   10.12390000
_cell_length_b   10.12390000
_cell_length_c   10.12390000
_cell_angle_alpha   90.00000000
_cell_angle_beta   90.00000000
_cell_angle_gamma   90.00000000
_symmetry_Int_Tables_number   1
_chemical_formula_structural   K2BrCl6F
_chemical_formula_sum   'K8 Br4 Cl24 F4'
_cell_volume   1037.63243831
_cell_formula_units_Z   4
loop_
 _symmetry_equiv_pos_site_id
 _symmetry_equiv_pos_as_xyz
  1  'x, y, z'
loop_
 _atom_site_type_symbol
 _atom_site_label
 _atom_site_symmetry_multiplicity
 _atom_site_fract_x
 _atom_site_fract_y
 _atom_site_fract_z
 _atom_site_occupancy
  K  K0  1  0.25000000  0.75000000  0.75000000  1
  K  K1  1  0.25000000  0.25000000  0.75000000  1
  K  K2  1  0.25000000  0.25000000  0.25000000  1
  K  K3  1  0.25000000  0.75000000  0.25000000  1
  K  K4  1  0.75000000  0.75000000  0.25000000  1
  K  K5  1  0.75000000  0.25000000  0.25000000  1
  K  K6  1  0.75000000  0.25000000  0.75000000  1
  K  K7  1  0.75000000  0.75000000  0.75000000  1
  Br  Br8  1  0.00000000  0.00000000  0.00000000  1
  Br  Br9  1  0.00000000  0.50000000  0.50000000  1
  Br  Br10  1  0.50000000  0.00000000  0.50000000  1
  Br  Br11  1  0.50000000  0.50000000  0.00000000  1
  Cl  Cl12  1  0.75666600  0.00000000  0.00000000  1
  Cl  Cl13  1  0.50000000  0.74333400  0.00000000  1
  Cl  Cl14  1  0.50000000  0.25666600  0.00000000  1
  Cl  Cl15  1  0.00000000  0.00000000  0.75666600  1
  Cl  Cl16  1  0.50000000  0.00000000  0.74333400  1
  Cl  Cl17  1  0.24333400  0.00000000  0.00000000  1
  Cl  Cl18  1  0.75666600  0.50000000  0.50000000  1
  Cl  Cl19  1  0.50000000  0.24333400  0.50000000  1
  Cl  Cl20  1  0.50000000  0.75666600  0.50000000  1
  Cl  Cl21  1  0.00000000  0.50000000  0.25666600  1
  Cl  Cl22  1  0.50000000  0.50000000  0.24333400  1
  Cl  Cl23  1  0.24333400  0.50000000  0.50000000  1
  Cl  Cl24  1  0.25666600  0.00000000  0.50000000  1
  Cl  Cl25  1  0.00000000  0.74333400  0.50000000  1
  Cl  Cl26  1  0.00000000  0.25666600  0.50000000  1
  Cl  Cl27  1  0.50000000  0.00000000  0.25666600  1
  Cl  Cl28  1  0.00000000  0.00000000  0.24333400  1
  Cl  Cl29  1  0.74333400  0.00000000  0.50000000  1
  Cl  Cl30  1  0.25666600  0.50000000  0.00000000  1
  Cl  Cl31  1  0.00000000  0.24333400  0.00000000  1
  Cl  Cl32  1  0.00000000  0.75666600  0.00000000  1
  Cl  Cl33  1  0.50000000  0.50000000  0.75666600  1
  Cl  Cl34  1  0.00000000  0.50000000  0.74333400  1
  Cl  Cl35  1  0.74333400  0.50000000  0.00000000  1
  F  F36  1  0.50000000  0.00000000  0.00000000  1
  F  F37  1  0.50000000  0.50000000  0.50000000  1
  F  F38  1  0.00000000  0.00000000  0.50000000  1
  F  F39  1  0.00000000  0.50000000  0.00000000  1
