# generated using pymatgen
data_TbAgSe2
_symmetry_space_group_name_H-M   'P 1'
_cell_length_a   5.75087400
_cell_length_b   5.75087400
_cell_length_c   12.04943200
_cell_angle_alpha   90.00000000
_cell_angle_beta   90.00000000
_cell_angle_gamma   90.00000000
_symmetry_Int_Tables_number   1
_chemical_formula_structural   TbAgSe2
_chemical_formula_sum   'Tb4 Ag4 Se8'
_cell_volume   398.50546355
_cell_formula_units_Z   4
loop_
 _symmetry_equiv_pos_site_id
 _symmetry_equiv_pos_as_xyz
  1  'x, y, z'
loop_
 _atom_site_type_symbol
 _atom_site_label
 _atom_site_symmetry_multiplicity
 _atom_site_fract_x
 _atom_site_fract_y
 _atom_site_fract_z
 _atom_site_occupancy
  Tb  Tb0  1  0.50000000  0.50000000  0.00898000  1
  Tb  Tb1  1  0.00000000  0.50000000  0.75898000  1
  Tb  Tb2  1  0.00000000  0.00000000  0.50898000  1
  Tb  Tb3  1  0.50000000  0.00000000  0.25898000  1
  Ag  Ag4  1  0.00000000  0.00000000  0.01358000  1
  Ag  Ag5  1  0.50000000  0.00000000  0.76358000  1
  Ag  Ag6  1  0.50000000  0.50000000  0.51358000  1
  Ag  Ag7  1  0.00000000  0.50000000  0.26358000  1
  Se  Se8  1  0.50000000  0.50000000  0.24885500  1
  Se  Se9  1  0.00000000  0.50000000  0.99885500  1
  Se  Se10  1  0.50000000  0.50000000  0.76858400  1
  Se  Se11  1  0.50000000  0.00000000  0.01858400  1
  Se  Se12  1  0.00000000  0.00000000  0.74885500  1
  Se  Se13  1  0.50000000  0.00000000  0.49885500  1
  Se  Se14  1  0.00000000  0.00000000  0.26858400  1
  Se  Se15  1  0.00000000  0.50000000  0.51858400  1
