# generated using pymatgen
data_K3SbS4
_symmetry_space_group_name_H-M   'P 1'
_cell_length_a   10.90015600
_cell_length_b   11.55312800
_cell_length_c   7.82567000
_cell_angle_alpha   90.00000000
_cell_angle_beta   90.00000000
_cell_angle_gamma   90.00000000
_symmetry_Int_Tables_number   1
_chemical_formula_structural   K3SbS4
_chemical_formula_sum   'K12 Sb4 S16'
_cell_volume   985.49364654
_cell_formula_units_Z   4
loop_
 _symmetry_equiv_pos_site_id
 _symmetry_equiv_pos_as_xyz
  1  'x, y, z'
loop_
 _atom_site_type_symbol
 _atom_site_label
 _atom_site_symmetry_multiplicity
 _atom_site_fract_x
 _atom_site_fract_y
 _atom_site_fract_z
 _atom_site_occupancy
  K  K0  1  0.50000000  0.19549300  0.01959800  1
  K  K1  1  0.50000000  0.80450700  0.51959800  1
  K  K2  1  0.21945100  0.03700800  0.51369000  1
  K  K3  1  0.78054900  0.96299200  0.01369000  1
  K  K4  1  0.78054900  0.03700800  0.51369000  1
  K  K5  1  0.21945100  0.96299200  0.01369000  1
  K  K6  1  0.00000000  0.69549300  0.01959800  1
  K  K7  1  0.00000000  0.30450700  0.51959800  1
  K  K8  1  0.71945100  0.53700800  0.51369000  1
  K  K9  1  0.28054900  0.46299200  0.01369000  1
  K  K10  1  0.28054900  0.53700800  0.51369000  1
  K  K11  1  0.71945100  0.46299200  0.01369000  1
  Sb  Sb12  1  0.50000000  0.25809200  0.51813600  1
  Sb  Sb13  1  0.50000000  0.74190800  0.01813600  1
  Sb  Sb14  1  0.00000000  0.75809200  0.51813600  1
  Sb  Sb15  1  0.00000000  0.24190800  0.01813600  1
  S  S16  1  0.50000000  0.92525100  0.15575600  1
  S  S17  1  0.50000000  0.07474900  0.65575600  1
  S  S18  1  0.50000000  0.59242600  0.22654400  1
  S  S19  1  0.50000000  0.40757400  0.72654400  1
  S  S20  1  0.67740950  0.72527650  0.84519300  1
  S  S21  1  0.32259050  0.27472350  0.34519300  1
  S  S22  1  0.32259050  0.72527650  0.84519300  1
  S  S23  1  0.67740950  0.27472350  0.34519300  1
  S  S24  1  0.00000000  0.42525100  0.15575600  1
  S  S25  1  0.00000000  0.57474900  0.65575600  1
  S  S26  1  0.00000000  0.09242600  0.22654400  1
  S  S27  1  0.00000000  0.90757400  0.72654400  1
  S  S28  1  0.17740950  0.22527650  0.84519300  1
  S  S29  1  0.82259050  0.77472350  0.34519300  1
  S  S30  1  0.82259050  0.22527650  0.84519300  1
  S  S31  1  0.17740950  0.77472350  0.34519300  1
