# generated using pymatgen
data_Al2SiO5
_symmetry_space_group_name_H-M   'P 1'
_cell_length_a   9.49677200
_cell_length_b   4.71805800
_cell_length_c   6.69984930
_cell_angle_alpha   90.00000000
_cell_angle_beta   112.06007816
_cell_angle_gamma   90.00000000
_symmetry_Int_Tables_number   1
_chemical_formula_structural   Al2SiO5
_chemical_formula_sum   'Al8 Si4 O20'
_cell_volume   278.21844362
_cell_formula_units_Z   4
loop_
 _symmetry_equiv_pos_site_id
 _symmetry_equiv_pos_as_xyz
  1  'x, y, z'
loop_
 _atom_site_type_symbol
 _atom_site_label
 _atom_site_symmetry_multiplicity
 _atom_site_fract_x
 _atom_site_fract_y
 _atom_site_fract_z
 _atom_site_occupancy
  Al  Al0  1  0.13328450  0.98962150  0.72705400  1
  Al  Al1  1  0.36671550  0.48962150  0.77294600  1
  Al  Al2  1  0.13328450  0.01037850  0.22705400  1
  Al  Al3  1  0.36671550  0.51037850  0.27294600  1
  Al  Al4  1  0.63328450  0.48962150  0.72705400  1
  Al  Al5  1  0.86671550  0.98962150  0.77294600  1
  Al  Al6  1  0.63328450  0.51037850  0.22705400  1
  Al  Al7  1  0.86671550  0.01037850  0.27294600  1
  Si  Si8  1  0.00000000  0.50000000  0.50000000  1
  Si  Si9  1  0.00000000  0.50000000  0.00000000  1
  Si  Si10  1  0.50000000  0.00000000  0.50000000  1
  Si  Si11  1  0.50000000  0.00000000  0.00000000  1
  O  O12  1  0.00000000  0.68852400  0.25000000  1
  O  O13  1  0.00000000  0.31147600  0.75000000  1
  O  O14  1  0.41869600  0.67435600  0.04777800  1
  O  O15  1  0.08130400  0.17435600  0.45222200  1
  O  O16  1  0.08130400  0.82564400  0.95222200  1
  O  O17  1  0.41869600  0.32564400  0.54777800  1
  O  O18  1  0.31959100  0.14275700  0.85401200  1
  O  O19  1  0.18040900  0.64275700  0.64598800  1
  O  O20  1  0.18040900  0.35724300  0.14598800  1
  O  O21  1  0.31959100  0.85724300  0.35401200  1
  O  O22  1  0.50000000  0.18852400  0.25000000  1
  O  O23  1  0.50000000  0.81147600  0.75000000  1
  O  O24  1  0.91869600  0.17435600  0.04777800  1
  O  O25  1  0.58130400  0.67435600  0.45222200  1
  O  O26  1  0.58130400  0.32564400  0.95222200  1
  O  O27  1  0.91869600  0.82564400  0.54777800  1
  O  O28  1  0.81959100  0.64275700  0.85401200  1
  O  O29  1  0.68040900  0.14275700  0.64598800  1
  O  O30  1  0.68040900  0.85724300  0.14598800  1
  O  O31  1  0.81959100  0.35724300  0.35401200  1
