# generated using pymatgen
data_MnAgO2
_symmetry_space_group_name_H-M   'P 1'
_cell_length_a   5.68827099
_cell_length_b   2.95781228
_cell_length_c   6.43355995
_cell_angle_alpha   90.00000000
_cell_angle_beta   102.38889894
_cell_angle_gamma   90.00000000
_symmetry_Int_Tables_number   1
_chemical_formula_structural   MnAgO2
_chemical_formula_sum   'Mn2 Ag2 O4'
_cell_volume   105.72302740
_cell_formula_units_Z   2
loop_
 _symmetry_equiv_pos_site_id
 _symmetry_equiv_pos_as_xyz
  1  'x, y, z'
loop_
 _atom_site_type_symbol
 _atom_site_label
 _atom_site_symmetry_multiplicity
 _atom_site_fract_x
 _atom_site_fract_y
 _atom_site_fract_z
 _atom_site_occupancy
  Mn  Mn0  1  0.50000000  0.00000000  0.00000000  1
  Mn  Mn1  1  0.00000000  0.50000000  0.00000000  1
  Ag  Ag2  1  0.00000000  0.00000000  0.50000000  1
  Ag  Ag3  1  0.50000000  0.50000000  0.50000000  1
  O  O4  1  0.59944837  0.50000000  0.83587500  1
  O  O5  1  0.90055163  0.00000000  0.16412500  1
  O  O6  1  0.09944837  0.00000000  0.83587500  1
  O  O7  1  0.40055163  0.50000000  0.16412500  1
