# generated using pymatgen
data_K2NaGaAs2
_symmetry_space_group_name_H-M   'P 1'
_cell_length_a   6.65473000
_cell_length_b   6.80128200
_cell_length_c   15.06773800
_cell_angle_alpha   90.00000000
_cell_angle_beta   90.00000000
_cell_angle_gamma   90.00000000
_symmetry_Int_Tables_number   1
_chemical_formula_structural   K2NaGaAs2
_chemical_formula_sum   'K8 Na4 Ga4 As8'
_cell_volume   681.97629944
_cell_formula_units_Z   4
loop_
 _symmetry_equiv_pos_site_id
 _symmetry_equiv_pos_as_xyz
  1  'x, y, z'
loop_
 _atom_site_type_symbol
 _atom_site_label
 _atom_site_symmetry_multiplicity
 _atom_site_fract_x
 _atom_site_fract_y
 _atom_site_fract_z
 _atom_site_occupancy
  K  K0  1  0.50000000  0.25512800  0.17294600  1
  K  K1  1  0.00000000  0.74487200  0.17294600  1
  K  K2  1  0.50000000  0.75512800  0.32705400  1
  K  K3  1  0.00000000  0.24487200  0.32705400  1
  K  K4  1  0.00000000  0.75512800  0.67294600  1
  K  K5  1  0.50000000  0.24487200  0.67294600  1
  K  K6  1  0.00000000  0.25512800  0.82705400  1
  K  K7  1  0.50000000  0.74487200  0.82705400  1
  Na  Na8  1  0.25000000  0.50000000  0.00000000  1
  Na  Na9  1  0.75000000  0.50000000  0.00000000  1
  Na  Na10  1  0.75000000  0.00000000  0.50000000  1
  Na  Na11  1  0.25000000  0.00000000  0.50000000  1
  Ga  Ga12  1  0.75000000  0.00000000  0.00000000  1
  Ga  Ga13  1  0.25000000  0.00000000  0.00000000  1
  Ga  Ga14  1  0.25000000  0.50000000  0.50000000  1
  Ga  Ga15  1  0.75000000  0.50000000  0.50000000  1
  As  As16  1  0.00000000  0.70211850  0.40518750  1
  As  As17  1  0.50000000  0.79788150  0.09481250  1
  As  As18  1  0.00000000  0.20211850  0.09481250  1
  As  As19  1  0.50000000  0.29788150  0.40518750  1
  As  As20  1  0.50000000  0.20211850  0.90518750  1
  As  As21  1  0.00000000  0.29788150  0.59481250  1
  As  As22  1  0.50000000  0.70211850  0.59481250  1
  As  As23  1  0.00000000  0.79788150  0.90518750  1
