# generated using pymatgen
data_KHo(CO3)2
_symmetry_space_group_name_H-M   'P 1'
_cell_length_a   8.47931400
_cell_length_b   9.58956200
_cell_length_c   7.04820308
_cell_angle_alpha   90.00000000
_cell_angle_beta   110.42584298
_cell_angle_gamma   90.00000000
_symmetry_Int_Tables_number   1
_chemical_formula_structural   KHo(CO3)2
_chemical_formula_sum   'K4 Ho4 C8 O24'
_cell_volume   537.07541193
_cell_formula_units_Z   4
loop_
 _symmetry_equiv_pos_site_id
 _symmetry_equiv_pos_as_xyz
  1  'x, y, z'
loop_
 _atom_site_type_symbol
 _atom_site_label
 _atom_site_symmetry_multiplicity
 _atom_site_fract_x
 _atom_site_fract_y
 _atom_site_fract_z
 _atom_site_occupancy
  K  K0  1  0.50000000  0.61836400  0.75000000  1
  K  K1  1  0.50000000  0.38163600  0.25000000  1
  K  K2  1  0.00000000  0.11836400  0.75000000  1
  K  K3  1  0.00000000  0.88163600  0.25000000  1
  Ho  Ho4  1  0.50000000  0.09210100  0.75000000  1
  Ho  Ho5  1  0.50000000  0.90789900  0.25000000  1
  Ho  Ho6  1  0.00000000  0.59210100  0.75000000  1
  Ho  Ho7  1  0.00000000  0.40789900  0.25000000  1
  C  C8  1  0.72935000  0.12682000  0.24812700  1
  C  C9  1  0.27065000  0.12682000  0.25187300  1
  C  C10  1  0.27065000  0.87318000  0.75187300  1
  C  C11  1  0.72935000  0.87318000  0.74812700  1
  C  C12  1  0.22935000  0.62682000  0.24812700  1
  C  C13  1  0.77065000  0.62682000  0.25187300  1
  C  C14  1  0.77065000  0.37318000  0.75187300  1
  C  C15  1  0.22935000  0.37318000  0.74812700  1
  O  O16  1  0.32455500  0.26746900  0.76507400  1
  O  O17  1  0.67544500  0.26746900  0.73492600  1
  O  O18  1  0.67544500  0.73253100  0.23492600  1
  O  O19  1  0.32455500  0.73253100  0.26507400  1
  O  O20  1  0.76643300  0.97501600  0.87697000  1
  O  O21  1  0.23356700  0.97501600  0.62303000  1
  O  O22  1  0.23356700  0.02498400  0.12303000  1
  O  O23  1  0.76643300  0.02498400  0.37697000  1
  O  O24  1  0.58219200  0.88258300  0.60012200  1
  O  O25  1  0.41780800  0.88258300  0.89987800  1
  O  O26  1  0.41780800  0.11741700  0.39987800  1
  O  O27  1  0.58219200  0.11741700  0.10012200  1
  O  O28  1  0.82455500  0.76746900  0.76507400  1
  O  O29  1  0.17544500  0.76746900  0.73492600  1
  O  O30  1  0.17544500  0.23253100  0.23492600  1
  O  O31  1  0.82455500  0.23253100  0.26507400  1
  O  O32  1  0.26643300  0.47501600  0.87697000  1
  O  O33  1  0.73356700  0.47501600  0.62303000  1
  O  O34  1  0.73356700  0.52498400  0.12303000  1
  O  O35  1  0.26643300  0.52498400  0.37697000  1
  O  O36  1  0.08219200  0.38258300  0.60012200  1
  O  O37  1  0.91780800  0.38258300  0.89987800  1
  O  O38  1  0.91780800  0.61741700  0.39987800  1
  O  O39  1  0.08219200  0.61741700  0.10012200  1
