# generated using pymatgen
data_Pb3I2(Cl2O3)2
_symmetry_space_group_name_H-M   'P 1'
_cell_length_a   15.72476800
_cell_length_b   7.54060200
_cell_length_c   12.19578929
_cell_angle_alpha   90.00000000
_cell_angle_beta   118.13040026
_cell_angle_gamma   90.00000000
_symmetry_Int_Tables_number   1
_chemical_formula_structural   Pb3I2(Cl2O3)2
_chemical_formula_sum   'Pb12 I8 Cl16 O24'
_cell_volume   1275.28752182
_cell_formula_units_Z   4
loop_
 _symmetry_equiv_pos_site_id
 _symmetry_equiv_pos_as_xyz
  1  'x, y, z'
loop_
 _atom_site_type_symbol
 _atom_site_label
 _atom_site_symmetry_multiplicity
 _atom_site_fract_x
 _atom_site_fract_y
 _atom_site_fract_z
 _atom_site_occupancy
  Pb  Pb0  1  0.00000000  0.83203700  0.75000000  1
  Pb  Pb1  1  0.00000000  0.16796300  0.25000000  1
  Pb  Pb2  1  0.30065800  0.64367900  0.82473600  1
  Pb  Pb3  1  0.19934200  0.14367900  0.67526400  1
  Pb  Pb4  1  0.69934200  0.35632100  0.17526400  1
  Pb  Pb5  1  0.80065800  0.85632100  0.32473600  1
  Pb  Pb6  1  0.50000000  0.33203700  0.75000000  1
  Pb  Pb7  1  0.50000000  0.66796300  0.25000000  1
  Pb  Pb8  1  0.80065800  0.14367900  0.82473600  1
  Pb  Pb9  1  0.69934200  0.64367900  0.67526400  1
  Pb  Pb10  1  0.19934200  0.85632100  0.17526400  1
  Pb  Pb11  1  0.30065800  0.35632100  0.32473600  1
  I  I12  1  0.05121700  0.28405100  0.97293200  1
  I  I13  1  0.94878300  0.28405100  0.52706800  1
  I  I14  1  0.94878300  0.71594900  0.02706800  1
  I  I15  1  0.05121700  0.71594900  0.47293200  1
  I  I16  1  0.55121700  0.78405100  0.97293200  1
  I  I17  1  0.44878300  0.78405100  0.52706800  1
  I  I18  1  0.44878300  0.21594900  0.02706800  1
  I  I19  1  0.55121700  0.21594900  0.47293200  1
  Cl  Cl20  1  0.87517350  0.45066250  0.72921800  1
  Cl  Cl21  1  0.12482650  0.45066250  0.77078200  1
  Cl  Cl22  1  0.12482650  0.54933750  0.27078200  1
  Cl  Cl23  1  0.87517350  0.54933750  0.22921800  1
  Cl  Cl24  1  0.29609900  0.44611200  0.61007700  1
  Cl  Cl25  1  0.20390100  0.94611200  0.88992300  1
  Cl  Cl26  1  0.70390100  0.55388800  0.38992300  1
  Cl  Cl27  1  0.79609900  0.05388800  0.11007700  1
  Cl  Cl28  1  0.37517350  0.95066250  0.72921800  1
  Cl  Cl29  1  0.62482650  0.95066250  0.77078200  1
  Cl  Cl30  1  0.62482650  0.04933750  0.27078200  1
  Cl  Cl31  1  0.37517350  0.04933750  0.22921800  1
  Cl  Cl32  1  0.79609900  0.94611200  0.61007700  1
  Cl  Cl33  1  0.70390100  0.44611200  0.88992300  1
  Cl  Cl34  1  0.20390100  0.05388800  0.38992300  1
  Cl  Cl35  1  0.29609900  0.55388800  0.11007700  1
  O  O36  1  0.99469650  0.08673650  0.87850400  1
  O  O37  1  0.00530350  0.08673650  0.62149600  1
  O  O38  1  0.00530350  0.91326350  0.12149600  1
  O  O39  1  0.99469650  0.91326350  0.37850400  1
  O  O40  1  0.35230450  0.31428750  0.88425800  1
  O  O41  1  0.14769550  0.81428750  0.61574200  1
  O  O42  1  0.64769550  0.68571250  0.11574200  1
  O  O43  1  0.85230450  0.18571250  0.38425800  1
  O  O44  1  0.04168200  0.68132700  0.97647800  1
  O  O45  1  0.95831800  0.68132700  0.52352200  1
  O  O46  1  0.95831800  0.31867300  0.02352200  1
  O  O47  1  0.04168200  0.31867300  0.47647800  1
  O  O48  1  0.49469650  0.58673650  0.87850400  1
  O  O49  1  0.50530350  0.58673650  0.62149600  1
  O  O50  1  0.50530350  0.41326350  0.12149600  1
  O  O51  1  0.49469650  0.41326350  0.37850400  1
  O  O52  1  0.85230450  0.81428750  0.88425800  1
  O  O53  1  0.64769550  0.31428750  0.61574200  1
  O  O54  1  0.14769550  0.18571250  0.11574200  1
  O  O55  1  0.35230450  0.68571250  0.38425800  1
  O  O56  1  0.54168200  0.18132700  0.97647800  1
  O  O57  1  0.45831800  0.18132700  0.52352200  1
  O  O58  1  0.45831800  0.81867300  0.02352200  1
  O  O59  1  0.54168200  0.81867300  0.47647800  1
