# generated using pymatgen
data_BaReN3
_symmetry_space_group_name_H-M   'P 1'
_cell_length_a   11.28419000
_cell_length_b   11.41610000
_cell_length_c   6.24121210
_cell_angle_alpha   90.00000000
_cell_angle_beta   103.27726503
_cell_angle_gamma   90.00000000
_symmetry_Int_Tables_number   1
_chemical_formula_structural   BaReN3
_chemical_formula_sum   'Ba8 Re8 N24'
_cell_volume   782.51103168
_cell_formula_units_Z   8
loop_
 _symmetry_equiv_pos_site_id
 _symmetry_equiv_pos_as_xyz
  1  'x, y, z'
loop_
 _atom_site_type_symbol
 _atom_site_label
 _atom_site_symmetry_multiplicity
 _atom_site_fract_x
 _atom_site_fract_y
 _atom_site_fract_z
 _atom_site_occupancy
  Ba  Ba0  1  0.50000000  0.17282000  0.75000000  1
  Ba  Ba1  1  0.50000000  0.40029000  0.25000000  1
  Ba  Ba2  1  0.50000000  0.82718000  0.25000000  1
  Ba  Ba3  1  0.50000000  0.59971000  0.75000000  1
  Ba  Ba4  1  0.00000000  0.67282000  0.75000000  1
  Ba  Ba5  1  0.00000000  0.90029000  0.25000000  1
  Ba  Ba6  1  0.00000000  0.32718000  0.25000000  1
  Ba  Ba7  1  0.00000000  0.09971000  0.75000000  1
  Re  Re8  1  0.28722000  0.08200000  0.24141000  1
  Re  Re9  1  0.71278000  0.08200000  0.25859000  1
  Re  Re10  1  0.28722000  0.91800000  0.74141000  1
  Re  Re11  1  0.71278000  0.91800000  0.75859000  1
  Re  Re12  1  0.78722000  0.58200000  0.24141000  1
  Re  Re13  1  0.21278000  0.58200000  0.25859000  1
  Re  Re14  1  0.78722000  0.41800000  0.74141000  1
  Re  Re15  1  0.21278000  0.41800000  0.75859000  1
  N  N16  1  0.87239000  0.10796000  0.32217000  1
  N  N17  1  0.66253000  0.01794000  0.50940000  1
  N  N18  1  0.33747000  0.98206000  0.49060000  1
  N  N19  1  0.87239000  0.89204000  0.82217000  1
  N  N20  1  0.63672000  0.78508000  0.68073000  1
  N  N21  1  0.12761000  0.89204000  0.67783000  1
  N  N22  1  0.36328000  0.21492000  0.31927000  1
  N  N23  1  0.63672000  0.21492000  0.18073000  1
  N  N24  1  0.36328000  0.78508000  0.81927000  1
  N  N25  1  0.66253000  0.98206000  0.00940000  1
  N  N26  1  0.33747000  0.01794000  0.99060000  1
  N  N27  1  0.12761000  0.10796000  0.17783000  1
  N  N28  1  0.37239000  0.60796000  0.32217000  1
  N  N29  1  0.16253000  0.51794000  0.50940000  1
  N  N30  1  0.83747000  0.48206000  0.49060000  1
  N  N31  1  0.37239000  0.39204000  0.82217000  1
  N  N32  1  0.13672000  0.28508000  0.68073000  1
  N  N33  1  0.62761000  0.39204000  0.67783000  1
  N  N34  1  0.86328000  0.71492000  0.31927000  1
  N  N35  1  0.13672000  0.71492000  0.18073000  1
  N  N36  1  0.86328000  0.28508000  0.81927000  1
  N  N37  1  0.16253000  0.48206000  0.00940000  1
  N  N38  1  0.83747000  0.51794000  0.99060000  1
  N  N39  1  0.62761000  0.60796000  0.17783000  1
