# generated using pymatgen
data_TiS2
_symmetry_space_group_name_H-M   'P 1'
_cell_length_a   9.81886800
_cell_length_b   9.81886800
_cell_length_c   9.81886800
_cell_angle_alpha   90.00000000
_cell_angle_beta   90.00000000
_cell_angle_gamma   90.00000000
_symmetry_Int_Tables_number   1
_chemical_formula_structural   TiS2
_chemical_formula_sum   'Ti16 S32'
_cell_volume   946.63872132
_cell_formula_units_Z   16
loop_
 _symmetry_equiv_pos_site_id
 _symmetry_equiv_pos_as_xyz
  1  'x, y, z'
loop_
 _atom_site_type_symbol
 _atom_site_label
 _atom_site_symmetry_multiplicity
 _atom_site_fract_x
 _atom_site_fract_y
 _atom_site_fract_z
 _atom_site_occupancy
  Ti  Ti0  1  0.37500000  0.87500000  0.12500000  1
  Ti  Ti1  1  0.37500000  0.62500000  0.37500000  1
  Ti  Ti2  1  0.12500000  0.87500000  0.37500000  1
  Ti  Ti3  1  0.12500000  0.62500000  0.12500000  1
  Ti  Ti4  1  0.37500000  0.37500000  0.62500000  1
  Ti  Ti5  1  0.37500000  0.12500000  0.87500000  1
  Ti  Ti6  1  0.12500000  0.37500000  0.87500000  1
  Ti  Ti7  1  0.12500000  0.12500000  0.62500000  1
  Ti  Ti8  1  0.87500000  0.87500000  0.62500000  1
  Ti  Ti9  1  0.87500000  0.62500000  0.87500000  1
  Ti  Ti10  1  0.62500000  0.87500000  0.87500000  1
  Ti  Ti11  1  0.62500000  0.62500000  0.62500000  1
  Ti  Ti12  1  0.87500000  0.37500000  0.12500000  1
  Ti  Ti13  1  0.87500000  0.12500000  0.37500000  1
  Ti  Ti14  1  0.62500000  0.37500000  0.37500000  1
  Ti  Ti15  1  0.62500000  0.12500000  0.12500000  1
  S  S16  1  0.37279800  0.87279800  0.37279800  1
  S  S17  1  0.37720200  0.12279800  0.12279800  1
  S  S18  1  0.12279800  0.12279800  0.37720200  1
  S  S19  1  0.12279800  0.37720200  0.12279800  1
  S  S20  1  0.37720200  0.37720200  0.37720200  1
  S  S21  1  0.87279800  0.12720200  0.12720200  1
  S  S22  1  0.12720200  0.87279800  0.12720200  1
  S  S23  1  0.62720200  0.12720200  0.37279800  1
  S  S24  1  0.37279800  0.37279800  0.87279800  1
  S  S25  1  0.37720200  0.62279800  0.62279800  1
  S  S26  1  0.12279800  0.62279800  0.87720200  1
  S  S27  1  0.12279800  0.87720200  0.62279800  1
  S  S28  1  0.37720200  0.87720200  0.87720200  1
  S  S29  1  0.87279800  0.62720200  0.62720200  1
  S  S30  1  0.12720200  0.37279800  0.62720200  1
  S  S31  1  0.62720200  0.62720200  0.87279800  1
  S  S32  1  0.87279800  0.87279800  0.87279800  1
  S  S33  1  0.87720200  0.12279800  0.62279800  1
  S  S34  1  0.62279800  0.12279800  0.87720200  1
  S  S35  1  0.62279800  0.37720200  0.62279800  1
  S  S36  1  0.87720200  0.37720200  0.87720200  1
  S  S37  1  0.37279800  0.12720200  0.62720200  1
  S  S38  1  0.62720200  0.87279800  0.62720200  1
  S  S39  1  0.12720200  0.12720200  0.87279800  1
  S  S40  1  0.87279800  0.37279800  0.37279800  1
  S  S41  1  0.87720200  0.62279800  0.12279800  1
  S  S42  1  0.62279800  0.62279800  0.37720200  1
  S  S43  1  0.62279800  0.87720200  0.12279800  1
  S  S44  1  0.87720200  0.87720200  0.37720200  1
  S  S45  1  0.37279800  0.62720200  0.12720200  1
  S  S46  1  0.62720200  0.37279800  0.12720200  1
  S  S47  1  0.12720200  0.62720200  0.37279800  1
