# generated using pymatgen
data_LiPF6
_symmetry_space_group_name_H-M   'P 1'
_cell_length_a   5.02187611
_cell_length_b   5.02187611
_cell_length_c   12.85658390
_cell_angle_alpha   90.00000000
_cell_angle_beta   90.00000000
_cell_angle_gamma   120.00000000
_symmetry_Int_Tables_number   1
_chemical_formula_structural   LiPF6
_chemical_formula_sum   'Li3 P3 F18'
_cell_volume   280.79424955
_cell_formula_units_Z   3
loop_
 _symmetry_equiv_pos_site_id
 _symmetry_equiv_pos_as_xyz
  1  'x, y, z'
loop_
 _atom_site_type_symbol
 _atom_site_label
 _atom_site_symmetry_multiplicity
 _atom_site_fract_x
 _atom_site_fract_y
 _atom_site_fract_z
 _atom_site_occupancy
  Li  Li0  1  0.33333333  0.66666667  0.16666667  1
  Li  Li1  1  1.00000000  0.00000000  0.50000000  1
  Li  Li2  1  0.66666667  0.33333333  0.83333333  1
  P  P3  1  0.00000000  0.00000000  0.00000000  1
  P  P4  1  0.66666667  0.33333333  0.33333333  1
  P  P5  1  0.33333333  0.66666667  0.66666667  1
  F  F6  1  0.43406100  0.39092400  0.25988200  1
  F  F7  1  0.60907600  0.04313700  0.25988200  1
  F  F8  1  0.95686300  0.56593900  0.25988200  1
  F  F9  1  0.05759067  0.29019633  0.07345133  1
  F  F10  1  0.70980367  0.76739433  0.07345133  1
  F  F11  1  0.23260567  0.94240933  0.07345133  1
  F  F12  1  0.10072767  0.72425733  0.59321533  1
  F  F13  1  0.27574267  0.37647033  0.59321533  1
  F  F14  1  0.62352967  0.89927233  0.59321533  1
  F  F15  1  0.72425733  0.62352967  0.40678467  1
  F  F16  1  0.37647033  0.10072767  0.40678467  1
  F  F17  1  0.89927233  0.27574267  0.40678467  1
  F  F18  1  0.76739433  0.05759067  0.92654867  1
  F  F19  1  0.94240933  0.70980367  0.92654867  1
  F  F20  1  0.29019633  0.23260567  0.92654867  1
  F  F21  1  0.39092400  0.95686300  0.74011800  1
  F  F22  1  0.04313700  0.43406100  0.74011800  1
  F  F23  1  0.56593900  0.60907600  0.74011800  1
