# generated using pymatgen
data_BaCu(SeO3)2
_symmetry_space_group_name_H-M   'P 1'
_cell_length_a   8.36969800
_cell_length_b   5.25531000
_cell_length_c   16.01537052
_cell_angle_alpha   90.00000000
_cell_angle_beta   91.27730167
_cell_angle_gamma   90.00000000
_symmetry_Int_Tables_number   1
_chemical_formula_structural   BaCu(SeO3)2
_chemical_formula_sum   'Ba4 Cu4 Se8 O24'
_cell_volume   704.26675875
_cell_formula_units_Z   4
loop_
 _symmetry_equiv_pos_site_id
 _symmetry_equiv_pos_as_xyz
  1  'x, y, z'
loop_
 _atom_site_type_symbol
 _atom_site_label
 _atom_site_symmetry_multiplicity
 _atom_site_fract_x
 _atom_site_fract_y
 _atom_site_fract_z
 _atom_site_occupancy
  Ba  Ba0  1  0.50000000  0.46410100  0.75000000  1
  Ba  Ba1  1  0.50000000  0.53589900  0.25000000  1
  Ba  Ba2  1  0.00000000  0.96410100  0.75000000  1
  Ba  Ba3  1  0.00000000  0.03589900  0.25000000  1
  Cu  Cu4  1  0.00000000  0.00000000  0.50000000  1
  Cu  Cu5  1  0.00000000  0.00000000  0.00000000  1
  Cu  Cu6  1  0.50000000  0.50000000  0.50000000  1
  Cu  Cu7  1  0.50000000  0.50000000  0.00000000  1
  Se  Se8  1  0.63562100  0.00089600  0.59092000  1
  Se  Se9  1  0.63562100  0.99910400  0.09092000  1
  Se  Se10  1  0.36437900  0.00089600  0.90908000  1
  Se  Se11  1  0.36437900  0.99910400  0.40908000  1
  Se  Se12  1  0.13562100  0.50089600  0.59092000  1
  Se  Se13  1  0.13562100  0.49910400  0.09092000  1
  Se  Se14  1  0.86437900  0.50089600  0.90908000  1
  Se  Se15  1  0.86437900  0.49910400  0.40908000  1
  O  O16  1  0.53507100  0.70981200  0.59833100  1
  O  O17  1  0.46492900  0.70981200  0.90166900  1
  O  O18  1  0.46492900  0.29018800  0.40166900  1
  O  O19  1  0.53507100  0.29018800  0.09833100  1
  O  O20  1  0.47387900  0.21224200  0.57837700  1
  O  O21  1  0.52612100  0.21224200  0.92162300  1
  O  O22  1  0.52612100  0.78775800  0.42162300  1
  O  O23  1  0.47387900  0.78775800  0.07837700  1
  O  O24  1  0.68288700  0.95557500  0.19395300  1
  O  O25  1  0.31711300  0.95557500  0.30604700  1
  O  O26  1  0.31711300  0.04442500  0.80604700  1
  O  O27  1  0.68288700  0.04442500  0.69395300  1
  O  O28  1  0.03507100  0.20981200  0.59833100  1
  O  O29  1  0.96492900  0.20981200  0.90166900  1
  O  O30  1  0.96492900  0.79018800  0.40166900  1
  O  O31  1  0.03507100  0.79018800  0.09833100  1
  O  O32  1  0.97387900  0.71224200  0.57837700  1
  O  O33  1  0.02612100  0.71224200  0.92162300  1
  O  O34  1  0.02612100  0.28775800  0.42162300  1
  O  O35  1  0.97387900  0.28775800  0.07837700  1
  O  O36  1  0.18288700  0.45557500  0.19395300  1
  O  O37  1  0.81711300  0.45557500  0.30604700  1
  O  O38  1  0.81711300  0.54442500  0.80604700  1
  O  O39  1  0.18288700  0.54442500  0.69395300  1
