# generated using pymatgen
data_LiCaAs
_symmetry_space_group_name_H-M   'P 1'
_cell_length_a   6.68168800
_cell_length_b   6.68168800
_cell_length_c   6.68168800
_cell_angle_alpha   90.00000000
_cell_angle_beta   90.00000000
_cell_angle_gamma   90.00000000
_symmetry_Int_Tables_number   1
_chemical_formula_structural   LiCaAs
_chemical_formula_sum   'Li4 Ca4 As4'
_cell_volume   298.30365694
_cell_formula_units_Z   4
loop_
 _symmetry_equiv_pos_site_id
 _symmetry_equiv_pos_as_xyz
  1  'x, y, z'
loop_
 _atom_site_type_symbol
 _atom_site_label
 _atom_site_symmetry_multiplicity
 _atom_site_fract_x
 _atom_site_fract_y
 _atom_site_fract_z
 _atom_site_occupancy
  Li  Li0  1  0.50000000  0.00000000  0.00000000  1
  Li  Li1  1  0.50000000  0.50000000  0.50000000  1
  Li  Li2  1  0.00000000  0.00000000  0.50000000  1
  Li  Li3  1  0.00000000  0.50000000  0.00000000  1
  Ca  Ca4  1  0.00000000  0.00000000  0.00000000  1
  Ca  Ca5  1  0.00000000  0.50000000  0.50000000  1
  Ca  Ca6  1  0.50000000  0.00000000  0.50000000  1
  Ca  Ca7  1  0.50000000  0.50000000  0.00000000  1
  As  As8  1  0.25000000  0.25000000  0.75000000  1
  As  As9  1  0.25000000  0.75000000  0.25000000  1
  As  As10  1  0.75000000  0.25000000  0.25000000  1
  As  As11  1  0.75000000  0.75000000  0.75000000  1
