# generated using pymatgen
data_CuBrO2
_symmetry_space_group_name_H-M   'P 1'
_cell_length_a   7.14042000
_cell_length_b   11.15181800
_cell_length_c   3.85682000
_cell_angle_alpha   90.00000000
_cell_angle_beta   90.00000000
_cell_angle_gamma   90.00000000
_symmetry_Int_Tables_number   1
_chemical_formula_structural   CuBrO2
_chemical_formula_sum   'Cu4 Br4 O8'
_cell_volume   307.11342498
_cell_formula_units_Z   4
loop_
 _symmetry_equiv_pos_site_id
 _symmetry_equiv_pos_as_xyz
  1  'x, y, z'
loop_
 _atom_site_type_symbol
 _atom_site_label
 _atom_site_symmetry_multiplicity
 _atom_site_fract_x
 _atom_site_fract_y
 _atom_site_fract_z
 _atom_site_occupancy
  Cu  Cu0  1  0.26486700  0.00000000  0.00000000  1
  Cu  Cu1  1  0.73513300  0.00000000  0.50000000  1
  Cu  Cu2  1  0.76486700  0.50000000  0.00000000  1
  Cu  Cu3  1  0.23513300  0.50000000  0.50000000  1
  Br  Br4  1  0.50000000  0.86722900  0.25000000  1
  Br  Br5  1  0.50000000  0.13277100  0.75000000  1
  Br  Br6  1  0.00000000  0.36722900  0.25000000  1
  Br  Br7  1  0.00000000  0.63277100  0.75000000  1
  O  O8  1  0.09038600  0.08689700  0.71687300  1
  O  O9  1  0.90961400  0.08689700  0.78312700  1
  O  O10  1  0.09038600  0.91310300  0.28312700  1
  O  O11  1  0.90961400  0.91310300  0.21687300  1
  O  O12  1  0.59038600  0.58689700  0.71687300  1
  O  O13  1  0.40961400  0.58689700  0.78312700  1
  O  O14  1  0.59038600  0.41310300  0.28312700  1
  O  O15  1  0.40961400  0.41310300  0.21687300  1
