# generated using pymatgen
data_YCuTe2
_symmetry_space_group_name_H-M   'P 1'
_cell_length_a   6.92846500
_cell_length_b   4.35275100
_cell_length_c   7.50310478
_cell_angle_alpha   90.00000000
_cell_angle_beta   90.60680511
_cell_angle_gamma   90.00000000
_symmetry_Int_Tables_number   1
_chemical_formula_structural   YCuTe2
_chemical_formula_sum   'Y2 Cu2 Te4'
_cell_volume   226.26506594
_cell_formula_units_Z   2
loop_
 _symmetry_equiv_pos_site_id
 _symmetry_equiv_pos_as_xyz
  1  'x, y, z'
loop_
 _atom_site_type_symbol
 _atom_site_label
 _atom_site_symmetry_multiplicity
 _atom_site_fract_x
 _atom_site_fract_y
 _atom_site_fract_z
 _atom_site_occupancy
  Y  Y0  1  0.00000000  0.00000000  0.00000000  1
  Y  Y1  1  0.00000000  0.50000000  0.50000000  1
  Cu  Cu2  1  0.35120400  0.50000000  0.83747900  1
  Cu  Cu3  1  0.64879600  0.50000000  0.16252100  1
  Te  Te4  1  0.73353100  0.00000000  0.33856900  1
  Te  Te5  1  0.73875000  0.50000000  0.82509600  1
  Te  Te6  1  0.26125000  0.50000000  0.17490400  1
  Te  Te7  1  0.26646900  0.00000000  0.66143100  1
