# generated using pymatgen
data_CaSn4(PO4)6
_symmetry_space_group_name_H-M   'P 1'
_cell_length_a   8.42045202
_cell_length_b   8.42045202
_cell_length_c   23.24094855
_cell_angle_alpha   90.00000000
_cell_angle_beta   90.00000000
_cell_angle_gamma   120.00000000
_symmetry_Int_Tables_number   1
_chemical_formula_structural   CaSn4(PO4)6
_chemical_formula_sum   'Ca3 Sn12 P18 O72'
_cell_volume   1427.10291183
_cell_formula_units_Z   3
loop_
 _symmetry_equiv_pos_site_id
 _symmetry_equiv_pos_as_xyz
  1  'x, y, z'
loop_
 _atom_site_type_symbol
 _atom_site_label
 _atom_site_symmetry_multiplicity
 _atom_site_fract_x
 _atom_site_fract_y
 _atom_site_fract_z
 _atom_site_occupancy
  Ca  Ca0  1  0.00000000  0.00000000  0.00000000  1
  Ca  Ca1  1  0.66666667  0.33333333  0.33333333  1
  Ca  Ca2  1  0.33333333  0.66666667  0.66666667  1
  Sn  Sn3  1  0.33333333  0.66666667  0.01584267  1
  Sn  Sn4  1  0.33333333  0.66666667  0.31749067  1
  Sn  Sn5  1  0.00000000  0.00000000  0.14783400  1
  Sn  Sn6  1  0.66666667  0.33333333  0.18549933  1
  Sn  Sn7  1  0.00000000  0.00000000  0.34917600  1
  Sn  Sn8  1  0.00000000  0.00000000  0.65082400  1
  Sn  Sn9  1  0.66666667  0.33333333  0.48116733  1
  Sn  Sn10  1  0.33333333  0.66666667  0.51883267  1
  Sn  Sn11  1  0.66666667  0.33333333  0.68250933  1
  Sn  Sn12  1  0.66666667  0.33333333  0.98415733  1
  Sn  Sn13  1  0.33333333  0.66666667  0.81450067  1
  Sn  Sn14  1  0.00000000  0.00000000  0.85216600  1
  P  P15  1  0.66886000  0.62498900  0.08186900  1
  P  P16  1  0.95612900  0.33114000  0.08186900  1
  P  P17  1  0.37501100  0.04387100  0.08186900  1
  P  P18  1  0.99780667  0.70834433  0.25146433  1
  P  P19  1  0.71053767  0.00219333  0.25146433  1
  P  P20  1  0.29165567  0.28946233  0.25146433  1
  P  P21  1  0.33552667  0.95832233  0.41520233  1
  P  P22  1  0.62279567  0.66447333  0.41520233  1
  P  P23  1  0.04167767  0.37720433  0.41520233  1
  P  P24  1  0.66447333  0.04167767  0.58479767  1
  P  P25  1  0.37720433  0.33552667  0.58479767  1
  P  P26  1  0.95832233  0.62279567  0.58479767  1
  P  P27  1  0.00219333  0.29165567  0.74853567  1
  P  P28  1  0.28946233  0.99780667  0.74853567  1
  P  P29  1  0.70834433  0.71053767  0.74853567  1
  P  P30  1  0.33114000  0.37501100  0.91813100  1
  P  P31  1  0.04387100  0.66886000  0.91813100  1
  P  P32  1  0.62498900  0.95612900  0.91813100  1
  O  O33  1  0.66017900  0.53588200  0.14026500  1
  O  O34  1  0.87570300  0.33982100  0.14026500  1
  O  O35  1  0.46411800  0.12429700  0.14026500  1
  O  O36  1  0.00648767  0.79745133  0.19306833  1
  O  O37  1  0.79096367  0.99351233  0.19306833  1
  O  O38  1  0.20254867  0.20903633  0.19306833  1
  O  O39  1  0.75955900  0.56717000  0.03426500  1
  O  O40  1  0.80761100  0.24044100  0.03426500  1
  O  O41  1  0.43283000  0.19238900  0.03426500  1
  O  O42  1  0.90710767  0.76616333  0.29906833  1
  O  O43  1  0.85905567  0.09289233  0.29906833  1
  O  O44  1  0.23383667  0.14094433  0.29906833  1
  O  O45  1  0.47365500  0.58006400  0.06649900  1
  O  O46  1  0.10640900  0.52634500  0.06649900  1
  O  O47  1  0.41993600  0.89359100  0.06649900  1
  O  O48  1  0.19301167  0.75326933  0.26683433  1
  O  O49  1  0.56025767  0.80698833  0.26683433  1
  O  O50  1  0.24673067  0.43974233  0.26683433  1
  O  O51  1  0.80073600  0.83756300  0.08635400  1
  O  O52  1  0.03682700  0.19926400  0.08635400  1
  O  O53  1  0.16243700  0.96317300  0.08635400  1
  O  O54  1  0.86593067  0.49577033  0.24697933  1
  O  O55  1  0.62983967  0.13406933  0.24697933  1
  O  O56  1  0.50422967  0.37016033  0.24697933  1
  O  O57  1  0.32684567  0.86921533  0.47359833  1
  O  O58  1  0.54236967  0.67315433  0.47359833  1
  O  O59  1  0.13078467  0.45763033  0.47359833  1
  O  O60  1  0.67315433  0.13078467  0.52640167  1
  O  O61  1  0.45763033  0.32684567  0.52640167  1
  O  O62  1  0.86921533  0.54236967  0.52640167  1
  O  O63  1  0.42622567  0.90050333  0.36759833  1
  O  O64  1  0.47427767  0.57377433  0.36759833  1
  O  O65  1  0.09949667  0.52572233  0.36759833  1
  O  O66  1  0.57377433  0.09949667  0.63240167  1
  O  O67  1  0.52572233  0.42622567  0.63240167  1
  O  O68  1  0.90050333  0.47427767  0.63240167  1
  O  O69  1  0.14032167  0.91339733  0.39983233  1
  O  O70  1  0.77307567  0.85967833  0.39983233  1
  O  O71  1  0.08660267  0.22692433  0.39983233  1
  O  O72  1  0.85967833  0.08660267  0.60016767  1
  O  O73  1  0.22692433  0.14032167  0.60016767  1
  O  O74  1  0.91339733  0.77307567  0.60016767  1
  O  O75  1  0.46740267  0.17089633  0.41968733  1
  O  O76  1  0.70349367  0.53259733  0.41968733  1
  O  O77  1  0.82910367  0.29650633  0.41968733  1
  O  O78  1  0.53259733  0.82910367  0.58031267  1
  O  O79  1  0.29650633  0.46740267  0.58031267  1
  O  O80  1  0.17089633  0.70349367  0.58031267  1
  O  O81  1  0.99351233  0.20254867  0.80693167  1
  O  O82  1  0.20903633  0.00648767  0.80693167  1
  O  O83  1  0.79745133  0.79096367  0.80693167  1
  O  O84  1  0.33982100  0.46411800  0.85973500  1
  O  O85  1  0.12429700  0.66017900  0.85973500  1
  O  O86  1  0.53588200  0.87570300  0.85973500  1
  O  O87  1  0.09289233  0.23383667  0.70093167  1
  O  O88  1  0.14094433  0.90710767  0.70093167  1
  O  O89  1  0.76616333  0.85905567  0.70093167  1
  O  O90  1  0.24044100  0.43283000  0.96573500  1
  O  O91  1  0.19238900  0.75955900  0.96573500  1
  O  O92  1  0.56717000  0.80761100  0.96573500  1
  O  O93  1  0.80698833  0.24673067  0.73316567  1
  O  O94  1  0.43974233  0.19301167  0.73316567  1
  O  O95  1  0.75326933  0.56025767  0.73316567  1
  O  O96  1  0.52634500  0.41993600  0.93350100  1
  O  O97  1  0.89359100  0.47365500  0.93350100  1
  O  O98  1  0.58006400  0.10640900  0.93350100  1
  O  O99  1  0.13406933  0.50422967  0.75302067  1
  O  O100  1  0.37016033  0.86593067  0.75302067  1
  O  O101  1  0.49577033  0.62983967  0.75302067  1
  O  O102  1  0.19926400  0.16243700  0.91364600  1
  O  O103  1  0.96317300  0.80073600  0.91364600  1
  O  O104  1  0.83756300  0.03682700  0.91364600  1
