# generated using pymatgen
data_NaZrCuS3
_symmetry_space_group_name_H-M   'P 1'
_cell_length_a   3.71164800
_cell_length_b   13.10852200
_cell_length_c   9.80788000
_cell_angle_alpha   90.00000000
_cell_angle_beta   90.00000000
_cell_angle_gamma   90.00000000
_symmetry_Int_Tables_number   1
_chemical_formula_structural   NaZrCuS3
_chemical_formula_sum   'Na4 Zr4 Cu4 S12'
_cell_volume   477.19474600
_cell_formula_units_Z   4
loop_
 _symmetry_equiv_pos_site_id
 _symmetry_equiv_pos_as_xyz
  1  'x, y, z'
loop_
 _atom_site_type_symbol
 _atom_site_label
 _atom_site_symmetry_multiplicity
 _atom_site_fract_x
 _atom_site_fract_y
 _atom_site_fract_z
 _atom_site_occupancy
  Na  Na0  1  0.50000000  0.25084400  0.25000000  1
  Na  Na1  1  0.00000000  0.24915600  0.75000000  1
  Na  Na2  1  0.00000000  0.75084400  0.25000000  1
  Na  Na3  1  0.50000000  0.74915600  0.75000000  1
  Zr  Zr4  1  0.00000000  0.00000000  0.00000000  1
  Zr  Zr5  1  0.00000000  0.00000000  0.50000000  1
  Zr  Zr6  1  0.50000000  0.50000000  0.00000000  1
  Zr  Zr7  1  0.50000000  0.50000000  0.50000000  1
  Cu  Cu8  1  0.00000000  0.47033700  0.25000000  1
  Cu  Cu9  1  0.50000000  0.02966300  0.75000000  1
  Cu  Cu10  1  0.50000000  0.97033700  0.25000000  1
  Cu  Cu11  1  0.00000000  0.52966300  0.75000000  1
  S  S12  1  0.50000000  0.42197400  0.75000000  1
  S  S13  1  0.00000000  0.36940700  0.43991000  1
  S  S14  1  0.00000000  0.07802600  0.25000000  1
  S  S15  1  0.00000000  0.36940700  0.06009000  1
  S  S16  1  0.50000000  0.13059300  0.56009000  1
  S  S17  1  0.50000000  0.13059300  0.93991000  1
  S  S18  1  0.00000000  0.92197400  0.75000000  1
  S  S19  1  0.50000000  0.86940700  0.43991000  1
  S  S20  1  0.50000000  0.57802600  0.25000000  1
  S  S21  1  0.50000000  0.86940700  0.06009000  1
  S  S22  1  0.00000000  0.63059300  0.56009000  1
  S  S23  1  0.00000000  0.63059300  0.93991000  1
