# generated using pymatgen
data_Ba2Si3Ag
_symmetry_space_group_name_H-M   'P 1'
_cell_length_a   8.66331000
_cell_length_b   15.02158400
_cell_length_c   19.95126800
_cell_angle_alpha   90.00000000
_cell_angle_beta   90.00000000
_cell_angle_gamma   90.00000000
_symmetry_Int_Tables_number   1
_chemical_formula_structural   Ba2Si3Ag
_chemical_formula_sum   'Ba32 Si48 Ag16'
_cell_volume   2596.39095897
_cell_formula_units_Z   16
loop_
 _symmetry_equiv_pos_site_id
 _symmetry_equiv_pos_as_xyz
  1  'x, y, z'
loop_
 _atom_site_type_symbol
 _atom_site_label
 _atom_site_symmetry_multiplicity
 _atom_site_fract_x
 _atom_site_fract_y
 _atom_site_fract_z
 _atom_site_occupancy
  Ba  Ba0  1  0.25000000  0.75000000  0.62558800  1
  Ba  Ba1  1  0.00000000  0.00000000  0.87558800  1
  Ba  Ba2  1  0.50000000  0.00000000  0.62441200  1
  Ba  Ba3  1  0.25000000  0.75000000  0.87441200  1
  Ba  Ba4  1  0.00000000  0.00000000  0.62420300  1
  Ba  Ba5  1  0.50000000  0.00000000  0.87579700  1
  Ba  Ba6  1  0.75000000  0.75000000  0.62579700  1
  Ba  Ba7  1  0.75000000  0.75000000  0.87420300  1
  Ba  Ba8  1  0.25000000  0.25000000  0.12558800  1
  Ba  Ba9  1  0.00000000  0.50000000  0.37558800  1
  Ba  Ba10  1  0.50000000  0.50000000  0.12441200  1
  Ba  Ba11  1  0.25000000  0.25000000  0.37441200  1
  Ba  Ba12  1  0.00000000  0.50000000  0.12420300  1
  Ba  Ba13  1  0.50000000  0.50000000  0.37579700  1
  Ba  Ba14  1  0.75000000  0.25000000  0.12579700  1
  Ba  Ba15  1  0.75000000  0.25000000  0.37420300  1
  Ba  Ba16  1  0.75000000  0.75000000  0.12558800  1
  Ba  Ba17  1  0.50000000  0.00000000  0.37558800  1
  Ba  Ba18  1  0.00000000  0.00000000  0.12441200  1
  Ba  Ba19  1  0.75000000  0.75000000  0.37441200  1
  Ba  Ba20  1  0.50000000  0.00000000  0.12420300  1
  Ba  Ba21  1  0.00000000  0.00000000  0.37579700  1
  Ba  Ba22  1  0.25000000  0.75000000  0.12579700  1
  Ba  Ba23  1  0.25000000  0.75000000  0.37420300  1
  Ba  Ba24  1  0.75000000  0.25000000  0.62558800  1
  Ba  Ba25  1  0.50000000  0.50000000  0.87558800  1
  Ba  Ba26  1  0.00000000  0.50000000  0.62441200  1
  Ba  Ba27  1  0.75000000  0.25000000  0.87441200  1
  Ba  Ba28  1  0.50000000  0.50000000  0.62420300  1
  Ba  Ba29  1  0.00000000  0.50000000  0.87579700  1
  Ba  Ba30  1  0.25000000  0.25000000  0.62579700  1
  Ba  Ba31  1  0.25000000  0.25000000  0.87420300  1
  Si  Si32  1  0.23897450  0.57967150  0.99703500  1
  Si  Si33  1  0.23897450  0.92032850  0.50296500  1
  Si  Si34  1  0.26102550  0.57967150  0.50296500  1
  Si  Si35  1  0.26102550  0.92032850  0.99703500  1
  Si  Si36  1  0.51102550  0.67032850  0.75296500  1
  Si  Si37  1  0.51102550  0.82967150  0.74703500  1
  Si  Si38  1  0.98897450  0.67032850  0.74703500  1
  Si  Si39  1  0.75000000  0.90962200  0.75000000  1
  Si  Si40  1  0.00000000  0.65962200  0.00000000  1
  Si  Si41  1  0.50000000  0.84037800  0.00000000  1
  Si  Si42  1  0.75000000  0.59037800  0.75000000  1
  Si  Si43  1  0.98897450  0.82967150  0.75296500  1
  Si  Si44  1  0.23897450  0.07967150  0.49703500  1
  Si  Si45  1  0.23897450  0.42032850  0.00296500  1
  Si  Si46  1  0.26102550  0.07967150  0.00296500  1
  Si  Si47  1  0.26102550  0.42032850  0.49703500  1
  Si  Si48  1  0.51102550  0.17032850  0.25296500  1
  Si  Si49  1  0.51102550  0.32967150  0.24703500  1
  Si  Si50  1  0.98897450  0.17032850  0.24703500  1
  Si  Si51  1  0.75000000  0.40962200  0.25000000  1
  Si  Si52  1  0.00000000  0.15962200  0.50000000  1
  Si  Si53  1  0.50000000  0.34037800  0.50000000  1
  Si  Si54  1  0.75000000  0.09037800  0.25000000  1
  Si  Si55  1  0.98897450  0.32967150  0.25296500  1
  Si  Si56  1  0.73897450  0.57967150  0.49703500  1
  Si  Si57  1  0.73897450  0.92032850  0.00296500  1
  Si  Si58  1  0.76102550  0.57967150  0.00296500  1
  Si  Si59  1  0.76102550  0.92032850  0.49703500  1
  Si  Si60  1  0.01102550  0.67032850  0.25296500  1
  Si  Si61  1  0.01102550  0.82967150  0.24703500  1
  Si  Si62  1  0.48897450  0.67032850  0.24703500  1
  Si  Si63  1  0.25000000  0.90962200  0.25000000  1
  Si  Si64  1  0.50000000  0.65962200  0.50000000  1
  Si  Si65  1  0.00000000  0.84037800  0.50000000  1
  Si  Si66  1  0.25000000  0.59037800  0.25000000  1
  Si  Si67  1  0.48897450  0.82967150  0.25296500  1
  Si  Si68  1  0.73897450  0.07967150  0.99703500  1
  Si  Si69  1  0.73897450  0.42032850  0.50296500  1
  Si  Si70  1  0.76102550  0.07967150  0.50296500  1
  Si  Si71  1  0.76102550  0.42032850  0.99703500  1
  Si  Si72  1  0.01102550  0.17032850  0.75296500  1
  Si  Si73  1  0.01102550  0.32967150  0.74703500  1
  Si  Si74  1  0.48897450  0.17032850  0.74703500  1
  Si  Si75  1  0.25000000  0.40962200  0.75000000  1
  Si  Si76  1  0.50000000  0.15962200  0.00000000  1
  Si  Si77  1  0.00000000  0.34037800  0.00000000  1
  Si  Si78  1  0.25000000  0.09037800  0.75000000  1
  Si  Si79  1  0.48897450  0.32967150  0.75296500  1
  Ag  Ag80  1  0.25000000  0.58303300  0.75000000  1
  Ag  Ag81  1  0.50000000  0.66696700  0.00000000  1
  Ag  Ag82  1  0.25000000  0.91696700  0.75000000  1
  Ag  Ag83  1  0.00000000  0.83303300  0.00000000  1
  Ag  Ag84  1  0.25000000  0.08303300  0.25000000  1
  Ag  Ag85  1  0.50000000  0.16696700  0.50000000  1
  Ag  Ag86  1  0.25000000  0.41696700  0.25000000  1
  Ag  Ag87  1  0.00000000  0.33303300  0.50000000  1
  Ag  Ag88  1  0.75000000  0.58303300  0.25000000  1
  Ag  Ag89  1  0.00000000  0.66696700  0.50000000  1
  Ag  Ag90  1  0.75000000  0.91696700  0.25000000  1
  Ag  Ag91  1  0.50000000  0.83303300  0.50000000  1
  Ag  Ag92  1  0.75000000  0.08303300  0.75000000  1
  Ag  Ag93  1  0.00000000  0.16696700  0.00000000  1
  Ag  Ag94  1  0.75000000  0.41696700  0.75000000  1
  Ag  Ag95  1  0.50000000  0.33303300  0.00000000  1
