# generated using pymatgen
data_KGeCl3
_symmetry_space_group_name_H-M   'P 1'
_cell_length_a   7.63046200
_cell_length_b   7.51863800
_cell_length_c   5.33510833
_cell_angle_alpha   90.00000000
_cell_angle_beta   91.28625672
_cell_angle_gamma   90.00000000
_symmetry_Int_Tables_number   1
_chemical_formula_structural   KGeCl3
_chemical_formula_sum   'K2 Ge2 Cl6'
_cell_volume   306.00167591
_cell_formula_units_Z   2
loop_
 _symmetry_equiv_pos_site_id
 _symmetry_equiv_pos_as_xyz
  1  'x, y, z'
loop_
 _atom_site_type_symbol
 _atom_site_label
 _atom_site_symmetry_multiplicity
 _atom_site_fract_x
 _atom_site_fract_y
 _atom_site_fract_z
 _atom_site_occupancy
  K  K0  1  0.00399800  0.00000000  0.99888100  1
  K  K1  1  0.50399800  0.50000000  0.99888100  1
  Ge  Ge2  1  0.52184600  0.00000000  0.46717500  1
  Ge  Ge3  1  0.02184600  0.50000000  0.46717500  1
  Cl  Cl4  1  0.74105450  0.76470250  0.48139300  1
  Cl  Cl5  1  0.49967500  0.00000000  0.00750700  1
  Cl  Cl6  1  0.74105450  0.23529750  0.48139300  1
  Cl  Cl7  1  0.24105450  0.26470250  0.48139300  1
  Cl  Cl8  1  0.99967500  0.50000000  0.00750700  1
  Cl  Cl9  1  0.24105450  0.73529750  0.48139300  1
