# generated using pymatgen
data_CaTcN3
_symmetry_space_group_name_H-M   'P 1'
_cell_length_a   12.36736000
_cell_length_b   3.65575000
_cell_length_c   6.47595585
_cell_angle_alpha   90.00000000
_cell_angle_beta   105.72235635
_cell_angle_gamma   90.00000000
_symmetry_Int_Tables_number   1
_chemical_formula_structural   CaTcN3
_chemical_formula_sum   'Ca4 Tc4 N12'
_cell_volume   281.83631437
_cell_formula_units_Z   4
loop_
 _symmetry_equiv_pos_site_id
 _symmetry_equiv_pos_as_xyz
  1  'x, y, z'
loop_
 _atom_site_type_symbol
 _atom_site_label
 _atom_site_symmetry_multiplicity
 _atom_site_fract_x
 _atom_site_fract_y
 _atom_site_fract_z
 _atom_site_occupancy
  Ca  Ca0  1  0.12156000  0.50000000  0.32867000  1
  Ca  Ca1  1  0.37844000  0.00000000  0.67133000  1
  Ca  Ca2  1  0.62156000  0.00000000  0.32867000  1
  Ca  Ca3  1  0.87844000  0.50000000  0.67133000  1
  Tc  Tc4  1  0.34523000  0.50000000  0.15075000  1
  Tc  Tc5  1  0.15477000  0.00000000  0.84925000  1
  Tc  Tc6  1  0.84523000  0.00000000  0.15075000  1
  Tc  Tc7  1  0.65477000  0.50000000  0.84925000  1
  N  N8  1  0.34327000  0.50000000  0.42229000  1
  N  N9  1  0.31982000  0.00000000  0.00744000  1
  N  N10  1  0.00251000  0.00000000  0.90247000  1
  N  N11  1  0.15673000  0.00000000  0.57771000  1
  N  N12  1  0.49749000  0.50000000  0.09753000  1
  N  N13  1  0.18018000  0.50000000  0.99256000  1
  N  N14  1  0.84327000  0.00000000  0.42229000  1
  N  N15  1  0.81982000  0.50000000  0.00744000  1
  N  N16  1  0.50251000  0.50000000  0.90247000  1
  N  N17  1  0.65673000  0.50000000  0.57771000  1
  N  N18  1  0.99749000  0.00000000  0.09753000  1
  N  N19  1  0.68018000  0.00000000  0.99256000  1
