# generated using pymatgen
data_CsTbS2
_symmetry_space_group_name_H-M   'P 1'
_cell_length_a   4.12674797
_cell_length_b   4.12674797
_cell_length_c   24.19473448
_cell_angle_alpha   90.00000000
_cell_angle_beta   90.00000000
_cell_angle_gamma   120.00000000
_symmetry_Int_Tables_number   1
_chemical_formula_structural   CsTbS2
_chemical_formula_sum   'Cs3 Tb3 S6'
_cell_volume   356.83494969
_cell_formula_units_Z   3
loop_
 _symmetry_equiv_pos_site_id
 _symmetry_equiv_pos_as_xyz
  1  'x, y, z'
loop_
 _atom_site_type_symbol
 _atom_site_label
 _atom_site_symmetry_multiplicity
 _atom_site_fract_x
 _atom_site_fract_y
 _atom_site_fract_z
 _atom_site_occupancy
  Cs  Cs0  1  0.00000000  0.00000000  0.00000000  1
  Cs  Cs1  1  0.66666667  0.33333333  0.33333333  1
  Cs  Cs2  1  0.33333333  0.66666667  0.66666667  1
  Tb  Tb3  1  0.33333333  0.66666667  0.16666667  1
  Tb  Tb4  1  1.00000000  1.00000000  0.50000000  1
  Tb  Tb5  1  0.66666667  0.33333333  0.83333333  1
  S  S6  1  0.66666667  0.33333333  0.10597333  1
  S  S7  1  0.00000000  0.00000000  0.22736000  1
  S  S8  1  0.33333333  0.66666667  0.43930667  1
  S  S9  1  0.66666667  0.33333333  0.56069333  1
  S  S10  1  0.00000000  0.00000000  0.77264000  1
  S  S11  1  0.33333333  0.66666667  0.89402667  1
