# generated using pymatgen
data_Sr2MgUO6
_symmetry_space_group_name_H-M   'P 1'
_cell_length_a   5.85147100
_cell_length_b   5.87601400
_cell_length_c   10.09713510
_cell_angle_alpha   90.00000000
_cell_angle_beta   125.10607097
_cell_angle_gamma   90.00000000
_symmetry_Int_Tables_number   1
_chemical_formula_structural   Sr2MgUO6
_chemical_formula_sum   'Sr4 Mg2 U2 O12'
_cell_volume   284.01840608
_cell_formula_units_Z   2
loop_
 _symmetry_equiv_pos_site_id
 _symmetry_equiv_pos_as_xyz
  1  'x, y, z'
loop_
 _atom_site_type_symbol
 _atom_site_label
 _atom_site_symmetry_multiplicity
 _atom_site_fract_x
 _atom_site_fract_y
 _atom_site_fract_z
 _atom_site_occupancy
  Sr  Sr0  1  0.73862300  0.96832600  0.74779300  1
  Sr  Sr1  1  0.26137700  0.46832600  0.75220700  1
  Sr  Sr2  1  0.73862300  0.53167400  0.24779300  1
  Sr  Sr3  1  0.26137700  0.03167400  0.25220700  1
  Mg  Mg4  1  0.50000000  0.50000000  0.50000000  1
  Mg  Mg5  1  0.50000000  0.00000000  0.00000000  1
  U  U6  1  0.00000000  0.00000000  0.50000000  1
  U  U7  1  0.00000000  0.50000000  0.00000000  1
  O  O8  1  0.74095500  0.27902800  0.45608900  1
  O  O9  1  0.32034300  0.21505700  0.54016600  1
  O  O10  1  0.25904500  0.72097200  0.54391100  1
  O  O11  1  0.16760100  0.01900300  0.74695200  1
  O  O12  1  0.83239900  0.51900300  0.75304800  1
  O  O13  1  0.74095500  0.22097200  0.95608900  1
  O  O14  1  0.67965700  0.71505700  0.95983400  1
  O  O15  1  0.32034300  0.28494300  0.04016600  1
  O  O16  1  0.25904500  0.77902800  0.04391100  1
  O  O17  1  0.16760100  0.48099700  0.24695200  1
  O  O18  1  0.83239900  0.98099700  0.25304800  1
  O  O19  1  0.67965700  0.78494300  0.45983400  1
