# generated using pymatgen
data_ScAlCO
_symmetry_space_group_name_H-M   'P 1'
_cell_length_a   3.28798393
_cell_length_b   3.28798393
_cell_length_c   30.28123004
_cell_angle_alpha   90.00000000
_cell_angle_beta   90.00000000
_cell_angle_gamma   120.00000000
_symmetry_Int_Tables_number   1
_chemical_formula_structural   ScAlCO
_chemical_formula_sum   'Sc6 Al6 C6 O6'
_cell_volume   283.50682351
_cell_formula_units_Z   6
loop_
 _symmetry_equiv_pos_site_id
 _symmetry_equiv_pos_as_xyz
  1  'x, y, z'
loop_
 _atom_site_type_symbol
 _atom_site_label
 _atom_site_symmetry_multiplicity
 _atom_site_fract_x
 _atom_site_fract_y
 _atom_site_fract_z
 _atom_site_occupancy
  Sc  Sc0  1  0.00000000  0.00000000  0.00000000  1
  Sc  Sc1  1  0.33333333  0.66666667  0.16666667  1
  Sc  Sc2  1  0.66666667  0.33333333  0.33333333  1
  Sc  Sc3  1  1.00000000  1.00000000  0.50000000  1
  Sc  Sc4  1  0.33333333  0.66666667  0.66666667  1
  Sc  Sc5  1  0.66666667  0.33333333  0.83333333  1
  Al  Al6  1  0.66666667  0.33333333  0.07195433  1
  Al  Al7  1  0.00000000  0.00000000  0.26137900  1
  Al  Al8  1  0.33333333  0.66666667  0.40528767  1
  Al  Al9  1  0.66666667  0.33333333  0.59471233  1
  Al  Al10  1  0.00000000  0.00000000  0.73862100  1
  Al  Al11  1  0.33333333  0.66666667  0.92804567  1
  C  C12  1  0.33333333  0.66666667  0.28510767  1
  C  C13  1  0.33333333  0.66666667  0.04822567  1
  C  C14  1  0.00000000  0.00000000  0.61844100  1
  C  C15  1  0.00000000  0.00000000  0.38155900  1
  C  C16  1  0.66666667  0.33333333  0.95177433  1
  C  C17  1  0.66666667  0.33333333  0.71489233  1
  O  O18  1  0.00000000  0.00000000  0.20005700  1
  O  O19  1  0.66666667  0.33333333  0.13327633  1
  O  O20  1  0.66666667  0.33333333  0.53339033  1
  O  O21  1  0.33333333  0.66666667  0.46660967  1
  O  O22  1  0.33333333  0.66666667  0.86672367  1
  O  O23  1  0.00000000  0.00000000  0.79994300  1
