# generated using pymatgen
data_CuO2F
_symmetry_space_group_name_H-M   'P 1'
_cell_length_a   6.45316800
_cell_length_b   8.19475200
_cell_length_c   3.95810300
_cell_angle_alpha   90.00000000
_cell_angle_beta   90.00000000
_cell_angle_gamma   90.00000000
_symmetry_Int_Tables_number   1
_chemical_formula_structural   CuO2F
_chemical_formula_sum   'Cu4 O8 F4'
_cell_volume   209.31284368
_cell_formula_units_Z   4
loop_
 _symmetry_equiv_pos_site_id
 _symmetry_equiv_pos_as_xyz
  1  'x, y, z'
loop_
 _atom_site_type_symbol
 _atom_site_label
 _atom_site_symmetry_multiplicity
 _atom_site_fract_x
 _atom_site_fract_y
 _atom_site_fract_z
 _atom_site_occupancy
  Cu  Cu0  1  0.71615900  0.00000000  0.00000000  1
  Cu  Cu1  1  0.28384100  0.00000000  0.50000000  1
  Cu  Cu2  1  0.21615900  0.50000000  0.00000000  1
  Cu  Cu3  1  0.78384100  0.50000000  0.50000000  1
  O  O4  1  0.40029900  0.38639300  0.71942600  1
  O  O5  1  0.59970100  0.38639300  0.78057400  1
  O  O6  1  0.59970100  0.61360700  0.21942600  1
  O  O7  1  0.40029900  0.61360700  0.28057400  1
  O  O8  1  0.90029900  0.88639300  0.71942600  1
  O  O9  1  0.09970100  0.88639300  0.78057400  1
  O  O10  1  0.09970100  0.11360700  0.21942600  1
  O  O11  1  0.90029900  0.11360700  0.28057400  1
  F  F12  1  0.50000000  0.10847800  0.25000000  1
  F  F13  1  0.50000000  0.89152200  0.75000000  1
  F  F14  1  0.00000000  0.60847800  0.25000000  1
  F  F15  1  0.00000000  0.39152200  0.75000000  1
