# generated using pymatgen
data_H2CO
_symmetry_space_group_name_H-M   'P 1'
_cell_length_a   9.63717400
_cell_length_b   9.63717400
_cell_length_c   6.48431400
_cell_angle_alpha   90.00000000
_cell_angle_beta   90.00000000
_cell_angle_gamma   90.00000000
_symmetry_Int_Tables_number   1
_chemical_formula_structural   H2CO
_chemical_formula_sum   'H32 C16 O16'
_cell_volume   602.23145842
_cell_formula_units_Z   16
loop_
 _symmetry_equiv_pos_site_id
 _symmetry_equiv_pos_as_xyz
  1  'x, y, z'
loop_
 _atom_site_type_symbol
 _atom_site_label
 _atom_site_symmetry_multiplicity
 _atom_site_fract_x
 _atom_site_fract_y
 _atom_site_fract_z
 _atom_site_occupancy
  H  H0  1  0.37775400  0.71920900  0.38490900  1
  H  H1  1  0.62224600  0.28079100  0.38490900  1
  H  H2  1  0.28079100  0.87775400  0.13490900  1
  H  H3  1  0.71920900  0.12224600  0.13490900  1
  H  H4  1  0.62224600  0.78079100  0.36509100  1
  H  H5  1  0.37775400  0.21920900  0.36509100  1
  H  H6  1  0.21920900  0.12224600  0.11509100  1
  H  H7  1  0.78079100  0.87775400  0.11509100  1
  H  H8  1  0.86028750  0.03869150  0.80318850  1
  H  H9  1  0.13971250  0.96130850  0.80318850  1
  H  H10  1  0.46130850  0.86028750  0.05318850  1
  H  H11  1  0.53869150  0.13971250  0.05318850  1
  H  H12  1  0.63971250  0.96130850  0.44681150  1
  H  H13  1  0.36028750  0.03869150  0.44681150  1
  H  H14  1  0.53869150  0.63971250  0.69681150  1
  H  H15  1  0.46130850  0.36028750  0.69681150  1
  H  H16  1  0.87775400  0.21920900  0.88490900  1
  H  H17  1  0.12224600  0.78079100  0.88490900  1
  H  H18  1  0.78079100  0.37775400  0.63490900  1
  H  H19  1  0.21920900  0.62224600  0.63490900  1
  H  H20  1  0.12224600  0.28079100  0.86509100  1
  H  H21  1  0.87775400  0.71920900  0.86509100  1
  H  H22  1  0.71920900  0.62224600  0.61509100  1
  H  H23  1  0.28079100  0.37775400  0.61509100  1
  H  H24  1  0.36028750  0.53869150  0.30318850  1
  H  H25  1  0.63971250  0.46130850  0.30318850  1
  H  H26  1  0.96130850  0.36028750  0.55318850  1
  H  H27  1  0.03869150  0.63971250  0.55318850  1
  H  H28  1  0.13971250  0.46130850  0.94681150  1
  H  H29  1  0.86028750  0.53869150  0.94681150  1
  H  H30  1  0.03869150  0.13971250  0.19681150  1
  H  H31  1  0.96130850  0.86028750  0.19681150  1
  C  C32  1  0.82378750  0.14615150  0.78025750  1
  C  C33  1  0.17621250  0.85384850  0.78025750  1
  C  C34  1  0.35384850  0.82378750  0.03025750  1
  C  C35  1  0.64615150  0.17621250  0.03025750  1
  C  C36  1  0.67621250  0.85384850  0.46974250  1
  C  C37  1  0.32378750  0.14615150  0.46974250  1
  C  C38  1  0.64615150  0.67621250  0.71974250  1
  C  C39  1  0.35384850  0.32378750  0.71974250  1
  C  C40  1  0.32378750  0.64615150  0.28025750  1
  C  C41  1  0.67621250  0.35384850  0.28025750  1
  C  C42  1  0.85384850  0.32378750  0.53025750  1
  C  C43  1  0.14615150  0.67621250  0.53025750  1
  C  C44  1  0.17621250  0.35384850  0.96974250  1
  C  C45  1  0.82378750  0.64615150  0.96974250  1
  C  C46  1  0.14615150  0.17621250  0.21974250  1
  C  C47  1  0.85384850  0.82378750  0.21974250  1
  O  O48  1  0.34687650  0.67697050  0.07350150  1
  O  O49  1  0.65312350  0.32302950  0.07350150  1
  O  O50  1  0.32302950  0.84687650  0.82350150  1
  O  O51  1  0.67697050  0.15312350  0.82350150  1
  O  O52  1  0.65312350  0.82302950  0.67649850  1
  O  O53  1  0.34687650  0.17697050  0.67649850  1
  O  O54  1  0.17697050  0.15312350  0.42649850  1
  O  O55  1  0.82302950  0.84687650  0.42649850  1
  O  O56  1  0.84687650  0.17697050  0.57350150  1
  O  O57  1  0.15312350  0.82302950  0.57350150  1
  O  O58  1  0.82302950  0.34687650  0.32350150  1
  O  O59  1  0.17697050  0.65312350  0.32350150  1
  O  O60  1  0.15312350  0.32302950  0.17649850  1
  O  O61  1  0.84687650  0.67697050  0.17649850  1
  O  O62  1  0.67697050  0.65312350  0.92649850  1
  O  O63  1  0.32302950  0.34687650  0.92649850  1
