# generated using pymatgen
data_NaBH4
_symmetry_space_group_name_H-M   'P 1'
_cell_length_a   6.06275800
_cell_length_b   6.06275800
_cell_length_c   6.06275800
_cell_angle_alpha   90.00000000
_cell_angle_beta   90.00000000
_cell_angle_gamma   90.00000000
_symmetry_Int_Tables_number   1
_chemical_formula_structural   NaBH4
_chemical_formula_sum   'Na4 B4 H16'
_cell_volume   222.84900537
_cell_formula_units_Z   4
loop_
 _symmetry_equiv_pos_site_id
 _symmetry_equiv_pos_as_xyz
  1  'x, y, z'
loop_
 _atom_site_type_symbol
 _atom_site_label
 _atom_site_symmetry_multiplicity
 _atom_site_fract_x
 _atom_site_fract_y
 _atom_site_fract_z
 _atom_site_occupancy
  Na  Na0  1  0.00000000  0.00000000  0.00000000  1
  Na  Na1  1  0.00000000  0.50000000  0.50000000  1
  Na  Na2  1  0.50000000  0.00000000  0.50000000  1
  Na  Na3  1  0.50000000  0.50000000  0.00000000  1
  B  B4  1  0.50000000  0.00000000  0.00000000  1
  B  B5  1  0.50000000  0.50000000  0.50000000  1
  B  B6  1  0.00000000  0.00000000  0.50000000  1
  B  B7  1  0.00000000  0.50000000  0.00000000  1
  H  H8  1  0.38312267  0.11687733  0.11687733  1
  H  H9  1  0.11687733  0.38312267  0.11687733  1
  H  H10  1  0.88312267  0.38312267  0.88312267  1
  H  H11  1  0.61687733  0.11687733  0.88312267  1
  H  H12  1  0.38312267  0.61687733  0.61687733  1
  H  H13  1  0.11687733  0.88312267  0.61687733  1
  H  H14  1  0.88312267  0.88312267  0.38312267  1
  H  H15  1  0.61687733  0.61687733  0.38312267  1
  H  H16  1  0.88312267  0.11687733  0.61687733  1
  H  H17  1  0.61687733  0.38312267  0.61687733  1
  H  H18  1  0.38312267  0.38312267  0.38312267  1
  H  H19  1  0.11687733  0.11687733  0.38312267  1
  H  H20  1  0.88312267  0.61687733  0.11687733  1
  H  H21  1  0.61687733  0.88312267  0.11687733  1
  H  H22  1  0.38312267  0.88312267  0.88312267  1
  H  H23  1  0.11687733  0.61687733  0.88312267  1
