# generated using pymatgen
data_KP2AuS7
_symmetry_space_group_name_H-M   'P 1'
_cell_length_a   8.07460000
_cell_length_b   9.72739600
_cell_length_c   15.26320450
_cell_angle_alpha   90.00000000
_cell_angle_beta   90.11823510
_cell_angle_gamma   90.00000000
_symmetry_Int_Tables_number   1
_chemical_formula_structural   KP2AuS7
_chemical_formula_sum   'K4 P8 Au4 S28'
_cell_volume   1198.84327658
_cell_formula_units_Z   4
loop_
 _symmetry_equiv_pos_site_id
 _symmetry_equiv_pos_as_xyz
  1  'x, y, z'
loop_
 _atom_site_type_symbol
 _atom_site_label
 _atom_site_symmetry_multiplicity
 _atom_site_fract_x
 _atom_site_fract_y
 _atom_site_fract_z
 _atom_site_occupancy
  K  K0  1  0.50000000  0.74264000  0.25000000  1
  K  K1  1  0.50000000  0.25736000  0.75000000  1
  K  K2  1  0.00000000  0.24264000  0.25000000  1
  K  K3  1  0.00000000  0.75736000  0.75000000  1
  P  P4  1  0.51515600  0.16394900  0.36016600  1
  P  P5  1  0.48484400  0.16394900  0.13983400  1
  P  P6  1  0.48484400  0.83605100  0.63983400  1
  P  P7  1  0.51515600  0.83605100  0.86016600  1
  P  P8  1  0.01515600  0.66394900  0.36016600  1
  P  P9  1  0.98484400  0.66394900  0.13983400  1
  P  P10  1  0.98484400  0.33605100  0.63983400  1
  P  P11  1  0.01515600  0.33605100  0.86016600  1
  Au  Au12  1  0.25000000  0.25000000  0.50000000  1
  Au  Au13  1  0.25000000  0.75000000  0.00000000  1
  Au  Au14  1  0.75000000  0.75000000  0.50000000  1
  Au  Au15  1  0.75000000  0.25000000  0.00000000  1
  S  S16  1  0.69463100  0.03066100  0.34354400  1
  S  S17  1  0.30536900  0.96933900  0.65645600  1
  S  S18  1  0.30536900  0.03066100  0.15645600  1
  S  S19  1  0.69463100  0.96933900  0.84354400  1
  S  S20  1  0.28232250  0.08185550  0.38743700  1
  S  S21  1  0.71767750  0.08185550  0.11256300  1
  S  S22  1  0.71767750  0.91814450  0.61256300  1
  S  S23  1  0.28232250  0.91814450  0.88743700  1
  S  S24  1  0.53069600  0.30070700  0.46429800  1
  S  S25  1  0.46930400  0.30070700  0.03570200  1
  S  S26  1  0.46930400  0.69929300  0.53570200  1
  S  S27  1  0.53069600  0.69929300  0.96429800  1
  S  S28  1  0.50000000  0.30283500  0.25000000  1
  S  S29  1  0.50000000  0.69716500  0.75000000  1
  S  S30  1  0.19463100  0.53066100  0.34354400  1
  S  S31  1  0.80536900  0.46933900  0.65645600  1
  S  S32  1  0.80536900  0.53066100  0.15645600  1
  S  S33  1  0.19463100  0.46933900  0.84354400  1
  S  S34  1  0.78232250  0.58185550  0.38743700  1
  S  S35  1  0.21767750  0.58185550  0.11256300  1
  S  S36  1  0.21767750  0.41814450  0.61256300  1
  S  S37  1  0.78232250  0.41814450  0.88743700  1
  S  S38  1  0.03069600  0.80070700  0.46429800  1
  S  S39  1  0.96930400  0.80070700  0.03570200  1
  S  S40  1  0.96930400  0.19929300  0.53570200  1
  S  S41  1  0.03069600  0.19929300  0.96429800  1
  S  S42  1  0.00000000  0.80283500  0.25000000  1
  S  S43  1  0.00000000  0.19716500  0.75000000  1
