# generated using pymatgen
data_NaLuS2
_symmetry_space_group_name_H-M   'P 1'
_cell_length_a   3.90263994
_cell_length_b   3.90263994
_cell_length_c   19.89960457
_cell_angle_alpha   90.00000000
_cell_angle_beta   90.00000000
_cell_angle_gamma   120.00000000
_symmetry_Int_Tables_number   1
_chemical_formula_structural   NaLuS2
_chemical_formula_sum   'Na3 Lu3 S6'
_cell_volume   262.47747978
_cell_formula_units_Z   3
loop_
 _symmetry_equiv_pos_site_id
 _symmetry_equiv_pos_as_xyz
  1  'x, y, z'
loop_
 _atom_site_type_symbol
 _atom_site_label
 _atom_site_symmetry_multiplicity
 _atom_site_fract_x
 _atom_site_fract_y
 _atom_site_fract_z
 _atom_site_occupancy
  Na  Na0  1  0.00000000  0.00000000  0.00000000  1
  Na  Na1  1  0.66666667  0.33333333  0.33333333  1
  Na  Na2  1  0.33333333  0.66666667  0.66666667  1
  Lu  Lu3  1  0.33333333  0.66666667  0.16666667  1
  Lu  Lu4  1  1.00000000  1.00000000  0.50000000  1
  Lu  Lu5  1  0.66666667  0.33333333  0.83333333  1
  S  S6  1  0.66666667  0.33333333  0.09191333  1
  S  S7  1  0.00000000  0.00000000  0.24142000  1
  S  S8  1  0.33333333  0.66666667  0.42524667  1
  S  S9  1  0.66666667  0.33333333  0.57475333  1
  S  S10  1  0.00000000  0.00000000  0.75858000  1
  S  S11  1  0.33333333  0.66666667  0.90808667  1
