# generated using pymatgen
data_LiSiB6
_symmetry_space_group_name_H-M   'P 1'
_cell_length_a   6.11110500
_cell_length_b   11.00303000
_cell_length_c   8.43052500
_cell_angle_alpha   90.00000000
_cell_angle_beta   90.00000000
_cell_angle_gamma   90.00000000
_symmetry_Int_Tables_number   1
_chemical_formula_structural   LiSiB6
_chemical_formula_sum   'Li8 Si8 B48'
_cell_volume   566.87416335
_cell_formula_units_Z   8
loop_
 _symmetry_equiv_pos_site_id
 _symmetry_equiv_pos_as_xyz
  1  'x, y, z'
loop_
 _atom_site_type_symbol
 _atom_site_label
 _atom_site_symmetry_multiplicity
 _atom_site_fract_x
 _atom_site_fract_y
 _atom_site_fract_z
 _atom_site_occupancy
  Li  Li0  1  0.50000000  0.67555900  0.16014900  1
  Li  Li1  1  0.00000000  0.67555900  0.33985100  1
  Li  Li2  1  0.50000000  0.82444100  0.66014900  1
  Li  Li3  1  0.00000000  0.82444100  0.83985100  1
  Li  Li4  1  0.00000000  0.17555900  0.16014900  1
  Li  Li5  1  0.50000000  0.17555900  0.33985100  1
  Li  Li6  1  0.00000000  0.32444100  0.66014900  1
  Li  Li7  1  0.50000000  0.32444100  0.83985100  1
  Si  Si8  1  0.00000000  0.83433800  0.12040400  1
  Si  Si9  1  0.50000000  0.83433800  0.37959600  1
  Si  Si10  1  0.00000000  0.66566200  0.62040400  1
  Si  Si11  1  0.50000000  0.66566200  0.87959600  1
  Si  Si12  1  0.50000000  0.33433800  0.12040400  1
  Si  Si13  1  0.00000000  0.33433800  0.37959600  1
  Si  Si14  1  0.50000000  0.16566200  0.62040400  1
  Si  Si15  1  0.00000000  0.16566200  0.87959600  1
  B  B16  1  0.73431000  0.92086700  0.03145000  1
  B  B17  1  0.26569000  0.92086700  0.03145000  1
  B  B18  1  0.00000000  0.65187200  0.05609400  1
  B  B19  1  0.50000000  0.89959300  0.15040600  1
  B  B20  1  0.15904350  0.53936550  0.16570700  1
  B  B21  1  0.84095650  0.53936550  0.16570700  1
  B  B22  1  0.34095650  0.53936550  0.33429300  1
  B  B23  1  0.65904350  0.53936550  0.33429300  1
  B  B24  1  0.00000000  0.89959300  0.34959400  1
  B  B25  1  0.50000000  0.65187200  0.44390600  1
  B  B26  1  0.76569000  0.92086700  0.46855000  1
  B  B27  1  0.23431000  0.92086700  0.46855000  1
  B  B28  1  0.26569000  0.57913300  0.53145000  1
  B  B29  1  0.73431000  0.57913300  0.53145000  1
  B  B30  1  0.00000000  0.84812800  0.55609400  1
  B  B31  1  0.50000000  0.60040700  0.65040600  1
  B  B32  1  0.84095650  0.96063450  0.66570700  1
  B  B33  1  0.15904350  0.96063450  0.66570700  1
  B  B34  1  0.65904350  0.96063450  0.83429300  1
  B  B35  1  0.34095650  0.96063450  0.83429300  1
  B  B36  1  0.00000000  0.60040700  0.84959400  1
  B  B37  1  0.50000000  0.84812800  0.94390600  1
  B  B38  1  0.23431000  0.57913300  0.96855000  1
  B  B39  1  0.76569000  0.57913300  0.96855000  1
  B  B40  1  0.23431000  0.42086700  0.03145000  1
  B  B41  1  0.76569000  0.42086700  0.03145000  1
  B  B42  1  0.50000000  0.15187200  0.05609400  1
  B  B43  1  0.00000000  0.39959300  0.15040600  1
  B  B44  1  0.65904350  0.03936550  0.16570700  1
  B  B45  1  0.34095650  0.03936550  0.16570700  1
  B  B46  1  0.84095650  0.03936550  0.33429300  1
  B  B47  1  0.15904350  0.03936550  0.33429300  1
  B  B48  1  0.50000000  0.39959300  0.34959400  1
  B  B49  1  0.00000000  0.15187200  0.44390600  1
  B  B50  1  0.26569000  0.42086700  0.46855000  1
  B  B51  1  0.73431000  0.42086700  0.46855000  1
  B  B52  1  0.76569000  0.07913300  0.53145000  1
  B  B53  1  0.23431000  0.07913300  0.53145000  1
  B  B54  1  0.50000000  0.34812800  0.55609400  1
  B  B55  1  0.00000000  0.10040700  0.65040600  1
  B  B56  1  0.34095650  0.46063450  0.66570700  1
  B  B57  1  0.65904350  0.46063450  0.66570700  1
  B  B58  1  0.15904350  0.46063450  0.83429300  1
  B  B59  1  0.84095650  0.46063450  0.83429300  1
  B  B60  1  0.50000000  0.10040700  0.84959400  1
  B  B61  1  0.00000000  0.34812800  0.94390600  1
  B  B62  1  0.73431000  0.07913300  0.96855000  1
  B  B63  1  0.26569000  0.07913300  0.96855000  1
