# generated using pymatgen
data_Li2La2Ti3O10
_symmetry_space_group_name_H-M   'P 1'
_cell_length_a   3.87689000
_cell_length_b   3.87689000
_cell_length_c   26.75773000
_cell_angle_alpha   90.00000000
_cell_angle_beta   90.00000000
_cell_angle_gamma   90.00000000
_symmetry_Int_Tables_number   1
_chemical_formula_structural   Li2La2Ti3O10
_chemical_formula_sum   'Li4 La4 Ti6 O20'
_cell_volume   402.17606896
_cell_formula_units_Z   2
loop_
 _symmetry_equiv_pos_site_id
 _symmetry_equiv_pos_as_xyz
  1  'x, y, z'
loop_
 _atom_site_type_symbol
 _atom_site_label
 _atom_site_symmetry_multiplicity
 _atom_site_fract_x
 _atom_site_fract_y
 _atom_site_fract_z
 _atom_site_occupancy
  Li  Li0  1  0.50000000  0.00000000  0.25000000  1
  Li  Li1  1  0.00000000  0.50000000  0.25000000  1
  Li  Li2  1  0.00000000  0.50000000  0.75000000  1
  Li  Li3  1  0.50000000  0.00000000  0.75000000  1
  La  La4  1  0.00000000  0.00000000  0.41883700  1
  La  La5  1  0.50000000  0.50000000  0.08116300  1
  La  La6  1  0.50000000  0.50000000  0.91883700  1
  La  La7  1  0.00000000  0.00000000  0.58116300  1
  Ti  Ti8  1  0.00000000  0.00000000  0.15771700  1
  Ti  Ti9  1  0.50000000  0.50000000  0.34228300  1
  Ti  Ti10  1  0.00000000  0.00000000  0.00000000  1
  Ti  Ti11  1  0.50000000  0.50000000  0.65771700  1
  Ti  Ti12  1  0.00000000  0.00000000  0.84228300  1
  Ti  Ti13  1  0.50000000  0.50000000  0.50000000  1
  O  O14  1  0.50000000  0.00000000  0.35747600  1
  O  O15  1  0.50000000  0.50000000  0.27545400  1
  O  O16  1  0.00000000  0.00000000  0.22454600  1
  O  O17  1  0.00000000  0.50000000  0.00000000  1
  O  O18  1  0.00000000  0.50000000  0.35747600  1
  O  O19  1  0.50000000  0.00000000  0.00000000  1
  O  O20  1  0.50000000  0.50000000  0.42736700  1
  O  O21  1  0.00000000  0.00000000  0.07263300  1
  O  O22  1  0.50000000  0.00000000  0.14252400  1
  O  O23  1  0.00000000  0.50000000  0.14252400  1
  O  O24  1  0.00000000  0.50000000  0.85747600  1
  O  O25  1  0.00000000  0.00000000  0.77545400  1
  O  O26  1  0.50000000  0.50000000  0.72454600  1
  O  O27  1  0.50000000  0.00000000  0.50000000  1
  O  O28  1  0.50000000  0.00000000  0.85747600  1
  O  O29  1  0.00000000  0.50000000  0.50000000  1
  O  O30  1  0.00000000  0.00000000  0.92736700  1
  O  O31  1  0.50000000  0.50000000  0.57263300  1
  O  O32  1  0.00000000  0.50000000  0.64252400  1
  O  O33  1  0.50000000  0.00000000  0.64252400  1
