# generated using pymatgen
data_Ba3BPO3
_symmetry_space_group_name_H-M   'P 1'
_cell_length_a   5.57506778
_cell_length_b   5.57506778
_cell_length_c   13.70876000
_cell_angle_alpha   90.00000000
_cell_angle_beta   90.00000000
_cell_angle_gamma   120.00000000
_symmetry_Int_Tables_number   1
_chemical_formula_structural   Ba3BPO3
_chemical_formula_sum   'Ba6 B2 P2 O6'
_cell_volume   369.00232962
_cell_formula_units_Z   2
loop_
 _symmetry_equiv_pos_site_id
 _symmetry_equiv_pos_as_xyz
  1  'x, y, z'
loop_
 _atom_site_type_symbol
 _atom_site_label
 _atom_site_symmetry_multiplicity
 _atom_site_fract_x
 _atom_site_fract_y
 _atom_site_fract_z
 _atom_site_occupancy
  Ba  Ba0  1  0.66666667  0.33333333  0.90183500  1
  Ba  Ba1  1  0.00000000  0.00000000  0.75000000  1
  Ba  Ba2  1  0.00000000  0.00000000  0.25000000  1
  Ba  Ba3  1  0.33333333  0.66666667  0.40183500  1
  Ba  Ba4  1  0.33333333  0.66666667  0.09816500  1
  Ba  Ba5  1  0.66666667  0.33333333  0.59816500  1
  B  B6  1  0.33333333  0.66666667  0.75000000  1
  B  B7  1  0.66666667  0.33333333  0.25000000  1
  P  P8  1  0.00000000  0.00000000  0.50000000  1
  P  P9  1  0.00000000  0.00000000  0.00000000  1
  O  O10  1  0.95630200  0.47815100  0.25000000  1
  O  O11  1  0.47815100  0.95630200  0.75000000  1
  O  O12  1  0.04369800  0.52184900  0.75000000  1
  O  O13  1  0.52184900  0.47815100  0.25000000  1
  O  O14  1  0.52184900  0.04369800  0.25000000  1
  O  O15  1  0.47815100  0.52184900  0.75000000  1
