# generated using pymatgen
data_CuBSe2
_symmetry_space_group_name_H-M   'P 1'
_cell_length_a   5.32765400
_cell_length_b   5.32765400
_cell_length_c   9.72095400
_cell_angle_alpha   90.00000000
_cell_angle_beta   90.00000000
_cell_angle_gamma   90.00000000
_symmetry_Int_Tables_number   1
_chemical_formula_structural   CuBSe2
_chemical_formula_sum   'Cu4 B4 Se8'
_cell_volume   275.91855847
_cell_formula_units_Z   4
loop_
 _symmetry_equiv_pos_site_id
 _symmetry_equiv_pos_as_xyz
  1  'x, y, z'
loop_
 _atom_site_type_symbol
 _atom_site_label
 _atom_site_symmetry_multiplicity
 _atom_site_fract_x
 _atom_site_fract_y
 _atom_site_fract_z
 _atom_site_occupancy
  Cu  Cu0  1  0.00000000  0.00000000  0.00000000  1
  Cu  Cu1  1  0.00000000  0.50000000  0.25000000  1
  Cu  Cu2  1  0.50000000  0.50000000  0.50000000  1
  Cu  Cu3  1  0.50000000  0.00000000  0.75000000  1
  B  B4  1  0.50000000  0.50000000  0.00000000  1
  B  B5  1  0.50000000  0.00000000  0.25000000  1
  B  B6  1  0.00000000  0.00000000  0.50000000  1
  B  B7  1  0.00000000  0.50000000  0.75000000  1
  Se  Se8  1  0.70250100  0.75000000  0.12500000  1
  Se  Se9  1  0.29749900  0.25000000  0.12500000  1
  Se  Se10  1  0.25000000  0.79749900  0.37500000  1
  Se  Se11  1  0.75000000  0.20250100  0.37500000  1
  Se  Se12  1  0.20250100  0.25000000  0.62500000  1
  Se  Se13  1  0.79749900  0.75000000  0.62500000  1
  Se  Se14  1  0.75000000  0.29749900  0.87500000  1
  Se  Se15  1  0.25000000  0.70250100  0.87500000  1
