# generated using pymatgen
data_Rh2S3
_symmetry_space_group_name_H-M   'P 1'
_cell_length_a   6.02562622
_cell_length_b   6.02562622
_cell_length_c   15.91974546
_cell_angle_alpha   90.00000000
_cell_angle_beta   90.00000000
_cell_angle_gamma   120.00000000
_symmetry_Int_Tables_number   1
_chemical_formula_structural   Rh2S3
_chemical_formula_sum   'Rh12 S18'
_cell_volume   500.57727172
_cell_formula_units_Z   6
loop_
 _symmetry_equiv_pos_site_id
 _symmetry_equiv_pos_as_xyz
  1  'x, y, z'
loop_
 _atom_site_type_symbol
 _atom_site_label
 _atom_site_symmetry_multiplicity
 _atom_site_fract_x
 _atom_site_fract_y
 _atom_site_fract_z
 _atom_site_occupancy
  Rh  Rh0  1  0.33333333  0.66666667  0.31633967  1
  Rh  Rh1  1  0.66666667  0.33333333  0.18366033  1
  Rh  Rh2  1  0.00000000  0.00000000  0.14967300  1
  Rh  Rh3  1  0.33333333  0.66666667  0.01699367  1
  Rh  Rh4  1  0.00000000  0.00000000  0.64967300  1
  Rh  Rh5  1  0.33333333  0.66666667  0.51699367  1
  Rh  Rh6  1  0.66666667  0.33333333  0.48300633  1
  Rh  Rh7  1  0.00000000  0.00000000  0.35032700  1
  Rh  Rh8  1  0.66666667  0.33333333  0.98300633  1
  Rh  Rh9  1  0.00000000  0.00000000  0.85032700  1
  Rh  Rh10  1  0.33333333  0.66666667  0.81633967  1
  Rh  Rh11  1  0.66666667  0.33333333  0.68366033  1
  S  S12  1  0.29948700  0.00000000  0.25000000  1
  S  S13  1  0.00000000  0.29948700  0.25000000  1
  S  S14  1  0.70051300  0.70051300  0.25000000  1
  S  S15  1  0.96615367  0.63282033  0.08333333  1
  S  S16  1  0.66666667  0.03384633  0.08333333  1
  S  S17  1  0.36717967  0.33333333  0.08333333  1
  S  S18  1  0.96615367  0.33333333  0.58333333  1
  S  S19  1  0.66666667  0.63282033  0.58333333  1
  S  S20  1  0.36717967  0.03384633  0.58333333  1
  S  S21  1  0.63282033  0.96615367  0.41666667  1
  S  S22  1  0.33333333  0.36717967  0.41666667  1
  S  S23  1  0.03384633  0.66666667  0.41666667  1
  S  S24  1  0.63282033  0.66666667  0.91666667  1
  S  S25  1  0.33333333  0.96615367  0.91666667  1
  S  S26  1  0.03384633  0.36717967  0.91666667  1
  S  S27  1  0.29948700  0.29948700  0.75000000  1
  S  S28  1  0.00000000  0.70051300  0.75000000  1
  S  S29  1  0.70051300  0.00000000  0.75000000  1
