# generated using pymatgen
data_HfTlCuSe3
_symmetry_space_group_name_H-M   'P 1'
_cell_length_a   3.85306400
_cell_length_b   14.90812400
_cell_length_c   10.14654400
_cell_angle_alpha   90.00000000
_cell_angle_beta   90.00000000
_cell_angle_gamma   90.00000000
_symmetry_Int_Tables_number   1
_chemical_formula_structural   HfTlCuSe3
_chemical_formula_sum   'Hf4 Tl4 Cu4 Se12'
_cell_volume   582.83733290
_cell_formula_units_Z   4
loop_
 _symmetry_equiv_pos_site_id
 _symmetry_equiv_pos_as_xyz
  1  'x, y, z'
loop_
 _atom_site_type_symbol
 _atom_site_label
 _atom_site_symmetry_multiplicity
 _atom_site_fract_x
 _atom_site_fract_y
 _atom_site_fract_z
 _atom_site_occupancy
  Hf  Hf0  1  0.00000000  0.00000000  0.00000000  1
  Hf  Hf1  1  0.00000000  0.00000000  0.50000000  1
  Hf  Hf2  1  0.50000000  0.50000000  0.00000000  1
  Hf  Hf3  1  0.50000000  0.50000000  0.50000000  1
  Tl  Tl4  1  0.00000000  0.24813200  0.75000000  1
  Tl  Tl5  1  0.50000000  0.25186800  0.25000000  1
  Tl  Tl6  1  0.50000000  0.74813200  0.75000000  1
  Tl  Tl7  1  0.00000000  0.75186800  0.25000000  1
  Cu  Cu8  1  0.00000000  0.46450400  0.25000000  1
  Cu  Cu9  1  0.50000000  0.03549600  0.75000000  1
  Cu  Cu10  1  0.50000000  0.96450400  0.25000000  1
  Cu  Cu11  1  0.00000000  0.53549600  0.75000000  1
  Se  Se12  1  0.50000000  0.12351800  0.54876600  1
  Se  Se13  1  0.00000000  0.37648200  0.45123400  1
  Se  Se14  1  0.00000000  0.37648200  0.04876600  1
  Se  Se15  1  0.50000000  0.12351800  0.95123400  1
  Se  Se16  1  0.00000000  0.06656700  0.25000000  1
  Se  Se17  1  0.50000000  0.43343300  0.75000000  1
  Se  Se18  1  0.00000000  0.62351800  0.54876600  1
  Se  Se19  1  0.50000000  0.87648200  0.45123400  1
  Se  Se20  1  0.50000000  0.87648200  0.04876600  1
  Se  Se21  1  0.00000000  0.62351800  0.95123400  1
  Se  Se22  1  0.50000000  0.56656700  0.25000000  1
  Se  Se23  1  0.00000000  0.93343300  0.75000000  1
