# generated using pymatgen
data_KGeBr3
_symmetry_space_group_name_H-M   'P 1'
_cell_length_a   7.97966200
_cell_length_b   7.87448000
_cell_length_c   5.59204652
_cell_angle_alpha   90.00000000
_cell_angle_beta   91.36054294
_cell_angle_gamma   90.00000000
_symmetry_Int_Tables_number   1
_chemical_formula_structural   KGeBr3
_chemical_formula_sum   'K2 Ge2 Br6'
_cell_volume   351.28103331
_cell_formula_units_Z   2
loop_
 _symmetry_equiv_pos_site_id
 _symmetry_equiv_pos_as_xyz
  1  'x, y, z'
loop_
 _atom_site_type_symbol
 _atom_site_label
 _atom_site_symmetry_multiplicity
 _atom_site_fract_x
 _atom_site_fract_y
 _atom_site_fract_z
 _atom_site_occupancy
  K  K0  1  0.49815300  0.50000000  0.00059500  1
  K  K1  1  0.99815300  0.00000000  0.00059500  1
  Ge  Ge2  1  0.97837800  0.50000000  0.53342300  1
  Ge  Ge3  1  0.47837800  0.00000000  0.53342300  1
  Br  Br4  1  0.75635250  0.25820750  0.51364300  1
  Br  Br5  1  0.00571400  0.50000000  0.00078700  1
  Br  Br6  1  0.75635250  0.74179250  0.51364300  1
  Br  Br7  1  0.25635250  0.75820750  0.51364300  1
  Br  Br8  1  0.50571400  0.00000000  0.00078700  1
  Br  Br9  1  0.25635250  0.24179250  0.51364300  1
