# generated using pymatgen
data_Li6PS5Cl
_symmetry_space_group_name_H-M   'P 1'
_cell_length_a   10.27949800
_cell_length_b   10.27949800
_cell_length_c   10.27949800
_cell_angle_alpha   90.00000000
_cell_angle_beta   90.00000000
_cell_angle_gamma   90.00000000
_symmetry_Int_Tables_number   1
_chemical_formula_structural   Li6PS5Cl
_chemical_formula_sum   'Li24 P4 S20 Cl4'
_cell_volume   1086.21480810
_cell_formula_units_Z   4
loop_
 _symmetry_equiv_pos_site_id
 _symmetry_equiv_pos_as_xyz
  1  'x, y, z'
loop_
 _atom_site_type_symbol
 _atom_site_label
 _atom_site_symmetry_multiplicity
 _atom_site_fract_x
 _atom_site_fract_y
 _atom_site_fract_z
 _atom_site_occupancy
  Li  Li0  1  0.25000000  0.25000000  0.02311300  1
  Li  Li1  1  0.25000000  0.25000000  0.47688700  1
  Li  Li2  1  0.25000000  0.47688700  0.25000000  1
  Li  Li3  1  0.25000000  0.02311300  0.25000000  1
  Li  Li4  1  0.02311300  0.25000000  0.25000000  1
  Li  Li5  1  0.47688700  0.25000000  0.25000000  1
  Li  Li6  1  0.25000000  0.75000000  0.52311300  1
  Li  Li7  1  0.25000000  0.75000000  0.97688700  1
  Li  Li8  1  0.25000000  0.97688700  0.75000000  1
  Li  Li9  1  0.25000000  0.52311300  0.75000000  1
  Li  Li10  1  0.02311300  0.75000000  0.75000000  1
  Li  Li11  1  0.47688700  0.75000000  0.75000000  1
  Li  Li12  1  0.75000000  0.25000000  0.52311300  1
  Li  Li13  1  0.75000000  0.25000000  0.97688700  1
  Li  Li14  1  0.75000000  0.47688700  0.75000000  1
  Li  Li15  1  0.75000000  0.02311300  0.75000000  1
  Li  Li16  1  0.52311300  0.25000000  0.75000000  1
  Li  Li17  1  0.97688700  0.25000000  0.75000000  1
  Li  Li18  1  0.75000000  0.75000000  0.02311300  1
  Li  Li19  1  0.75000000  0.75000000  0.47688700  1
  Li  Li20  1  0.75000000  0.97688700  0.25000000  1
  Li  Li21  1  0.75000000  0.52311300  0.25000000  1
  Li  Li22  1  0.52311300  0.75000000  0.25000000  1
  Li  Li23  1  0.97688700  0.75000000  0.25000000  1
  P  P24  1  0.50000000  0.00000000  0.00000000  1
  P  P25  1  0.50000000  0.50000000  0.50000000  1
  P  P26  1  0.00000000  0.00000000  0.50000000  1
  P  P27  1  0.00000000  0.50000000  0.00000000  1
  S  S28  1  0.11552233  0.38447767  0.88447767  1
  S  S29  1  0.88447767  0.38447767  0.11552233  1
  S  S30  1  0.38447767  0.11552233  0.88447767  1
  S  S31  1  0.61552233  0.11552233  0.11552233  1
  S  S32  1  0.25000000  0.25000000  0.25000000  1
  S  S33  1  0.11552233  0.88447767  0.38447767  1
  S  S34  1  0.88447767  0.88447767  0.61552233  1
  S  S35  1  0.38447767  0.61552233  0.38447767  1
  S  S36  1  0.61552233  0.61552233  0.61552233  1
  S  S37  1  0.25000000  0.75000000  0.75000000  1
  S  S38  1  0.61552233  0.38447767  0.38447767  1
  S  S39  1  0.38447767  0.38447767  0.61552233  1
  S  S40  1  0.88447767  0.11552233  0.38447767  1
  S  S41  1  0.11552233  0.11552233  0.61552233  1
  S  S42  1  0.75000000  0.25000000  0.75000000  1
  S  S43  1  0.61552233  0.88447767  0.88447767  1
  S  S44  1  0.38447767  0.88447767  0.11552233  1
  S  S45  1  0.88447767  0.61552233  0.88447767  1
  S  S46  1  0.11552233  0.61552233  0.11552233  1
  S  S47  1  0.75000000  0.75000000  0.25000000  1
  Cl  Cl48  1  0.00000000  0.00000000  0.00000000  1
  Cl  Cl49  1  0.00000000  0.50000000  0.50000000  1
  Cl  Cl50  1  0.50000000  0.00000000  0.50000000  1
  Cl  Cl51  1  0.50000000  0.50000000  0.00000000  1
