# generated using pymatgen
data_Ba(AuO2)2
_symmetry_space_group_name_H-M   'P 1'
_cell_length_a   6.58248400
_cell_length_b   6.58248400
_cell_length_c   10.40677400
_cell_angle_alpha   90.00000000
_cell_angle_beta   90.00000000
_cell_angle_gamma   90.00000000
_symmetry_Int_Tables_number   1
_chemical_formula_structural   Ba(AuO2)2
_chemical_formula_sum   'Ba4 Au8 O16'
_cell_volume   450.91610564
_cell_formula_units_Z   4
loop_
 _symmetry_equiv_pos_site_id
 _symmetry_equiv_pos_as_xyz
  1  'x, y, z'
loop_
 _atom_site_type_symbol
 _atom_site_label
 _atom_site_symmetry_multiplicity
 _atom_site_fract_x
 _atom_site_fract_y
 _atom_site_fract_z
 _atom_site_occupancy
  Ba  Ba0  1  0.00000000  0.50000000  0.25000000  1
  Ba  Ba1  1  0.00000000  0.00000000  0.00000000  1
  Ba  Ba2  1  0.50000000  0.00000000  0.75000000  1
  Ba  Ba3  1  0.50000000  0.50000000  0.50000000  1
  Au  Au4  1  0.50000000  0.25000000  0.12500000  1
  Au  Au5  1  0.75000000  0.00000000  0.37500000  1
  Au  Au6  1  0.50000000  0.75000000  0.12500000  1
  Au  Au7  1  0.25000000  0.00000000  0.37500000  1
  Au  Au8  1  0.00000000  0.75000000  0.62500000  1
  Au  Au9  1  0.25000000  0.50000000  0.87500000  1
  Au  Au10  1  0.00000000  0.25000000  0.62500000  1
  Au  Au11  1  0.75000000  0.50000000  0.87500000  1
  O  O12  1  0.23387050  0.84915650  0.20396550  1
  O  O13  1  0.84915650  0.26612950  0.45396550  1
  O  O14  1  0.15084350  0.73387050  0.45396550  1
  O  O15  1  0.76612950  0.15084350  0.20396550  1
  O  O16  1  0.76612950  0.65084350  0.04603450  1
  O  O17  1  0.65084350  0.73387050  0.29603450  1
  O  O18  1  0.23387050  0.34915650  0.04603450  1
  O  O19  1  0.34915650  0.26612950  0.29603450  1
  O  O20  1  0.73387050  0.34915650  0.70396550  1
  O  O21  1  0.34915650  0.76612950  0.95396550  1
  O  O22  1  0.65084350  0.23387050  0.95396550  1
  O  O23  1  0.26612950  0.65084350  0.70396550  1
  O  O24  1  0.26612950  0.15084350  0.54603450  1
  O  O25  1  0.15084350  0.23387050  0.79603450  1
  O  O26  1  0.73387050  0.84915650  0.54603450  1
  O  O27  1  0.84915650  0.76612950  0.79603450  1
