# generated using pymatgen
data_TiPN3
_symmetry_space_group_name_H-M   'P 1'
_cell_length_a   9.41719200
_cell_length_b   8.71449200
_cell_length_c   4.99125427
_cell_angle_alpha   90.00000000
_cell_angle_beta   101.63631787
_cell_angle_gamma   90.00000000
_symmetry_Int_Tables_number   1
_chemical_formula_structural   TiPN3
_chemical_formula_sum   'Ti8 P8 N24'
_cell_volume   401.19397315
_cell_formula_units_Z   8
loop_
 _symmetry_equiv_pos_site_id
 _symmetry_equiv_pos_as_xyz
  1  'x, y, z'
loop_
 _atom_site_type_symbol
 _atom_site_label
 _atom_site_symmetry_multiplicity
 _atom_site_fract_x
 _atom_site_fract_y
 _atom_site_fract_z
 _atom_site_occupancy
  Ti  Ti0  1  0.00000000  0.28240600  0.75000000  1
  Ti  Ti1  1  0.00000000  0.10407300  0.25000000  1
  Ti  Ti2  1  0.00000000  0.71759400  0.25000000  1
  Ti  Ti3  1  0.00000000  0.89592700  0.75000000  1
  Ti  Ti4  1  0.50000000  0.78240600  0.75000000  1
  Ti  Ti5  1  0.50000000  0.60407300  0.25000000  1
  Ti  Ti6  1  0.50000000  0.21759400  0.25000000  1
  Ti  Ti7  1  0.50000000  0.39592700  0.75000000  1
  P  P8  1  0.20019400  0.58644600  0.79442700  1
  P  P9  1  0.20019400  0.41355400  0.29442700  1
  P  P10  1  0.79980600  0.41355400  0.20557300  1
  P  P11  1  0.79980600  0.58644600  0.70557300  1
  P  P12  1  0.70019400  0.08644600  0.79442700  1
  P  P13  1  0.70019400  0.91355400  0.29442700  1
  P  P14  1  0.29980600  0.91355400  0.20557300  1
  P  P15  1  0.29980600  0.08644600  0.70557300  1
  N  N16  1  0.14563150  0.56488650  0.09242600  1
  N  N17  1  0.37971650  0.59500950  0.86134500  1
  N  N18  1  0.62028350  0.40499050  0.13865500  1
  N  N19  1  0.14563150  0.43511350  0.59242600  1
  N  N20  1  0.11944350  0.26637450  0.13145700  1
  N  N21  1  0.88055650  0.73362550  0.86854300  1
  N  N22  1  0.88055650  0.26637450  0.36854300  1
  N  N23  1  0.85436850  0.43511350  0.90757400  1
  N  N24  1  0.62028350  0.59500950  0.63865500  1
  N  N25  1  0.11944350  0.73362550  0.63145700  1
  N  N26  1  0.37971650  0.40499050  0.36134500  1
  N  N27  1  0.85436850  0.56488650  0.40757400  1
  N  N28  1  0.64563150  0.06488650  0.09242600  1
  N  N29  1  0.87971650  0.09500950  0.86134500  1
  N  N30  1  0.12028350  0.90499050  0.13865500  1
  N  N31  1  0.64563150  0.93511350  0.59242600  1
  N  N32  1  0.61944350  0.76637450  0.13145700  1
  N  N33  1  0.38055650  0.23362550  0.86854300  1
  N  N34  1  0.38055650  0.76637450  0.36854300  1
  N  N35  1  0.35436850  0.93511350  0.90757400  1
  N  N36  1  0.12028350  0.09500950  0.63865500  1
  N  N37  1  0.61944350  0.23362550  0.63145700  1
  N  N38  1  0.87971650  0.90499050  0.36134500  1
  N  N39  1  0.35436850  0.06488650  0.40757400  1
