# generated using pymatgen
data_NiAgF3
_symmetry_space_group_name_H-M   'P 1'
_cell_length_a   3.04885800
_cell_length_b   10.92898200
_cell_length_c   7.63391100
_cell_angle_alpha   90.00000000
_cell_angle_beta   90.00000000
_cell_angle_gamma   90.00000000
_symmetry_Int_Tables_number   1
_chemical_formula_structural   NiAgF3
_chemical_formula_sum   'Ni4 Ag4 F12'
_cell_volume   254.36889346
_cell_formula_units_Z   4
loop_
 _symmetry_equiv_pos_site_id
 _symmetry_equiv_pos_as_xyz
  1  'x, y, z'
loop_
 _atom_site_type_symbol
 _atom_site_label
 _atom_site_symmetry_multiplicity
 _atom_site_fract_x
 _atom_site_fract_y
 _atom_site_fract_z
 _atom_site_occupancy
  Ni  Ni0  1  0.00000000  0.00000000  0.00000000  1
  Ni  Ni1  1  0.00000000  0.00000000  0.50000000  1
  Ni  Ni2  1  0.50000000  0.50000000  0.00000000  1
  Ni  Ni3  1  0.50000000  0.50000000  0.50000000  1
  Ag  Ag4  1  0.00000000  0.25450100  0.25000000  1
  Ag  Ag5  1  0.50000000  0.24549900  0.75000000  1
  Ag  Ag6  1  0.50000000  0.75450100  0.25000000  1
  Ag  Ag7  1  0.00000000  0.74549900  0.75000000  1
  F  F8  1  0.00000000  0.37971500  0.95201800  1
  F  F9  1  0.50000000  0.12028500  0.45201800  1
  F  F10  1  0.00000000  0.37971500  0.54798200  1
  F  F11  1  0.50000000  0.12028500  0.04798200  1
  F  F12  1  0.50000000  0.43929200  0.25000000  1
  F  F13  1  0.00000000  0.06070800  0.75000000  1
  F  F14  1  0.50000000  0.87971500  0.95201800  1
  F  F15  1  0.00000000  0.62028500  0.45201800  1
  F  F16  1  0.50000000  0.87971500  0.54798200  1
  F  F17  1  0.00000000  0.62028500  0.04798200  1
  F  F18  1  0.00000000  0.93929200  0.25000000  1
  F  F19  1  0.50000000  0.56070800  0.75000000  1
