# generated using pymatgen
data_KH8N3
_symmetry_space_group_name_H-M   'P 1'
_cell_length_a   6.91177800
_cell_length_b   9.77841400
_cell_length_c   6.59160100
_cell_angle_alpha   90.00000000
_cell_angle_beta   90.00000000
_cell_angle_gamma   90.00000000
_symmetry_Int_Tables_number   1
_chemical_formula_structural   KH8N3
_chemical_formula_sum   'K4 H32 N12'
_cell_volume   445.50143990
_cell_formula_units_Z   4
loop_
 _symmetry_equiv_pos_site_id
 _symmetry_equiv_pos_as_xyz
  1  'x, y, z'
loop_
 _atom_site_type_symbol
 _atom_site_label
 _atom_site_symmetry_multiplicity
 _atom_site_fract_x
 _atom_site_fract_y
 _atom_site_fract_z
 _atom_site_occupancy
  K  K0  1  0.50000000  0.43647900  0.75000000  1
  K  K1  1  0.50000000  0.56352100  0.25000000  1
  K  K2  1  0.00000000  0.93647900  0.75000000  1
  K  K3  1  0.00000000  0.06352100  0.25000000  1
  H  H4  1  0.63454200  0.15342000  0.52346800  1
  H  H5  1  0.28869800  0.78367900  0.55277600  1
  H  H6  1  0.41500950  0.99581750  0.62156600  1
  H  H7  1  0.75741700  0.16455000  0.73357800  1
  H  H8  1  0.24258300  0.16455000  0.76642200  1
  H  H9  1  0.58499050  0.99581750  0.87843400  1
  H  H10  1  0.71130200  0.78367900  0.94722400  1
  H  H11  1  0.36545800  0.15342000  0.97653200  1
  H  H12  1  0.36545800  0.84658000  0.02346800  1
  H  H13  1  0.71130200  0.21632100  0.05277600  1
  H  H14  1  0.58499050  0.00418250  0.12156600  1
  H  H15  1  0.24258300  0.83545000  0.23357800  1
  H  H16  1  0.75741700  0.83545000  0.26642200  1
  H  H17  1  0.41500950  0.00418250  0.37843400  1
  H  H18  1  0.28869800  0.21632100  0.44722400  1
  H  H19  1  0.63454200  0.84658000  0.47653200  1
  H  H20  1  0.13454200  0.65342000  0.52346800  1
  H  H21  1  0.78869800  0.28367900  0.55277600  1
  H  H22  1  0.91500950  0.49581750  0.62156600  1
  H  H23  1  0.25741700  0.66455000  0.73357800  1
  H  H24  1  0.74258300  0.66455000  0.76642200  1
  H  H25  1  0.08499050  0.49581750  0.87843400  1
  H  H26  1  0.21130200  0.28367900  0.94722400  1
  H  H27  1  0.86545800  0.65342000  0.97653200  1
  H  H28  1  0.86545800  0.34658000  0.02346800  1
  H  H29  1  0.21130200  0.71632100  0.05277600  1
  H  H30  1  0.08499050  0.50418250  0.12156600  1
  H  H31  1  0.74258300  0.33545000  0.23357800  1
  H  H32  1  0.25741700  0.33545000  0.26642200  1
  H  H33  1  0.91500950  0.50418250  0.37843400  1
  H  H34  1  0.78869800  0.71632100  0.44722400  1
  H  H35  1  0.13454200  0.34658000  0.47653200  1
  N  N36  1  0.32115700  0.00000000  0.50000000  1
  N  N37  1  0.76814450  0.17951350  0.58045900  1
  N  N38  1  0.23185550  0.17951350  0.91954100  1
  N  N39  1  0.67884300  0.00000000  0.00000000  1
  N  N40  1  0.23185550  0.82048650  0.08045900  1
  N  N41  1  0.76814450  0.82048650  0.41954100  1
  N  N42  1  0.82115700  0.50000000  0.50000000  1
  N  N43  1  0.26814450  0.67951350  0.58045900  1
  N  N44  1  0.73185550  0.67951350  0.91954100  1
  N  N45  1  0.17884300  0.50000000  0.00000000  1
  N  N46  1  0.73185550  0.32048650  0.08045900  1
  N  N47  1  0.26814450  0.32048650  0.41954100  1
