# generated using pymatgen
data_K2LiGaAs2
_symmetry_space_group_name_H-M   'P 1'
_cell_length_a   12.58956600
_cell_length_b   15.56034400
_cell_length_c   6.28527900
_cell_angle_alpha   90.00000000
_cell_angle_beta   90.00000000
_cell_angle_gamma   90.00000000
_symmetry_Int_Tables_number   1
_chemical_formula_structural   K2LiGaAs2
_chemical_formula_sum   'K16 Li8 Ga8 As16'
_cell_volume   1231.27344582
_cell_formula_units_Z   8
loop_
 _symmetry_equiv_pos_site_id
 _symmetry_equiv_pos_as_xyz
  1  'x, y, z'
loop_
 _atom_site_type_symbol
 _atom_site_label
 _atom_site_symmetry_multiplicity
 _atom_site_fract_x
 _atom_site_fract_y
 _atom_site_fract_z
 _atom_site_occupancy
  K  K0  1  0.25000000  0.17222000  0.75000000  1
  K  K1  1  0.50000000  0.82938100  0.78037900  1
  K  K2  1  0.50000000  0.17061900  0.21962100  1
  K  K3  1  0.75000000  0.17222000  0.75000000  1
  K  K4  1  0.25000000  0.82778000  0.25000000  1
  K  K5  1  0.75000000  0.82778000  0.25000000  1
  K  K6  1  0.50000000  0.67061900  0.28037900  1
  K  K7  1  0.50000000  0.32938100  0.71962100  1
  K  K8  1  0.75000000  0.67222000  0.75000000  1
  K  K9  1  0.00000000  0.32938100  0.78037900  1
  K  K10  1  0.00000000  0.67061900  0.21962100  1
  K  K11  1  0.25000000  0.67222000  0.75000000  1
  K  K12  1  0.75000000  0.32778000  0.25000000  1
  K  K13  1  0.25000000  0.32778000  0.25000000  1
  K  K14  1  0.00000000  0.17061900  0.28037900  1
  K  K15  1  0.00000000  0.82938100  0.71962100  1
  Li  Li16  1  0.12008500  0.00000000  0.50000000  1
  Li  Li17  1  0.87991500  0.00000000  0.50000000  1
  Li  Li18  1  0.37991500  0.00000000  0.00000000  1
  Li  Li19  1  0.62008500  0.00000000  0.00000000  1
  Li  Li20  1  0.62008500  0.50000000  0.50000000  1
  Li  Li21  1  0.37991500  0.50000000  0.50000000  1
  Li  Li22  1  0.87991500  0.50000000  0.00000000  1
  Li  Li23  1  0.12008500  0.50000000  0.00000000  1
  Ga  Ga24  1  0.86848700  0.00000000  0.00000000  1
  Ga  Ga25  1  0.36848700  0.00000000  0.50000000  1
  Ga  Ga26  1  0.63151300  0.00000000  0.50000000  1
  Ga  Ga27  1  0.13151300  0.00000000  0.00000000  1
  Ga  Ga28  1  0.36848700  0.50000000  0.00000000  1
  Ga  Ga29  1  0.86848700  0.50000000  0.50000000  1
  Ga  Ga30  1  0.13151300  0.50000000  0.50000000  1
  Ga  Ga31  1  0.63151300  0.50000000  0.00000000  1
  As  As32  1  0.75000000  0.90699700  0.75000000  1
  As  As33  1  0.50000000  0.40729600  0.21284000  1
  As  As34  1  0.50000000  0.09270400  0.71284000  1
  As  As35  1  0.50000000  0.90729600  0.28716000  1
  As  As36  1  0.75000000  0.09300300  0.25000000  1
  As  As37  1  0.25000000  0.09300300  0.25000000  1
  As  As38  1  0.25000000  0.90699700  0.75000000  1
  As  As39  1  0.50000000  0.59270400  0.78716000  1
  As  As40  1  0.25000000  0.40699700  0.75000000  1
  As  As41  1  0.00000000  0.90729600  0.21284000  1
  As  As42  1  0.00000000  0.59270400  0.71284000  1
  As  As43  1  0.00000000  0.40729600  0.28716000  1
  As  As44  1  0.25000000  0.59300300  0.25000000  1
  As  As45  1  0.75000000  0.59300300  0.25000000  1
  As  As46  1  0.75000000  0.40699700  0.75000000  1
  As  As47  1  0.00000000  0.09270400  0.78716000  1
