# generated using pymatgen
data_Al6Cd4TeO12
_symmetry_space_group_name_H-M   'P 1'
_cell_length_a   9.07829000
_cell_length_b   9.07829000
_cell_length_c   9.07829000
_cell_angle_alpha   90.00000000
_cell_angle_beta   90.00000000
_cell_angle_gamma   90.00000000
_symmetry_Int_Tables_number   1
_chemical_formula_structural   Al6Cd4TeO12
_chemical_formula_sum   'Al12 Cd8 Te2 O24'
_cell_volume   748.19044162
_cell_formula_units_Z   2
loop_
 _symmetry_equiv_pos_site_id
 _symmetry_equiv_pos_as_xyz
  1  'x, y, z'
loop_
 _atom_site_type_symbol
 _atom_site_label
 _atom_site_symmetry_multiplicity
 _atom_site_fract_x
 _atom_site_fract_y
 _atom_site_fract_z
 _atom_site_occupancy
  Al  Al0  1  0.00000000  0.25000000  0.50000000  1
  Al  Al1  1  0.50000000  0.25000000  0.00000000  1
  Al  Al2  1  0.25000000  0.00000000  0.50000000  1
  Al  Al3  1  0.25000000  0.50000000  0.00000000  1
  Al  Al4  1  0.50000000  0.00000000  0.25000000  1
  Al  Al5  1  0.00000000  0.50000000  0.25000000  1
  Al  Al6  1  0.50000000  0.75000000  0.00000000  1
  Al  Al7  1  0.00000000  0.75000000  0.50000000  1
  Al  Al8  1  0.75000000  0.50000000  0.00000000  1
  Al  Al9  1  0.75000000  0.00000000  0.50000000  1
  Al  Al10  1  0.00000000  0.50000000  0.75000000  1
  Al  Al11  1  0.50000000  0.00000000  0.75000000  1
  Cd  Cd12  1  0.17929300  0.17929300  0.17929300  1
  Cd  Cd13  1  0.32070700  0.67929300  0.32070700  1
  Cd  Cd14  1  0.32070700  0.32070700  0.67929300  1
  Cd  Cd15  1  0.67929300  0.32070700  0.32070700  1
  Cd  Cd16  1  0.67929300  0.67929300  0.67929300  1
  Cd  Cd17  1  0.82070700  0.17929300  0.82070700  1
  Cd  Cd18  1  0.82070700  0.82070700  0.17929300  1
  Cd  Cd19  1  0.17929300  0.82070700  0.82070700  1
  Te  Te20  1  0.00000000  0.00000000  0.00000000  1
  Te  Te21  1  0.50000000  0.50000000  0.50000000  1
  O  O22  1  0.85670150  0.57877150  0.14329850  1
  O  O23  1  0.35670150  0.92122850  0.35670150  1
  O  O24  1  0.42122850  0.14329850  0.14329850  1
  O  O25  1  0.14329850  0.14329850  0.42122850  1
  O  O26  1  0.57877150  0.14329850  0.85670150  1
  O  O27  1  0.92122850  0.35670150  0.35670150  1
  O  O28  1  0.35670150  0.35670150  0.92122850  1
  O  O29  1  0.85670150  0.14329850  0.57877150  1
  O  O30  1  0.14329850  0.57877150  0.85670150  1
  O  O31  1  0.14329850  0.85670150  0.57877150  1
  O  O32  1  0.14329850  0.42122850  0.14329850  1
  O  O33  1  0.57877150  0.85670150  0.14329850  1
  O  O34  1  0.35670150  0.07877150  0.64329850  1
  O  O35  1  0.85670150  0.42122850  0.85670150  1
  O  O36  1  0.92122850  0.64329850  0.64329850  1
  O  O37  1  0.64329850  0.64329850  0.92122850  1
  O  O38  1  0.07877150  0.64329850  0.35670150  1
  O  O39  1  0.42122850  0.85670150  0.85670150  1
  O  O40  1  0.85670150  0.85670150  0.42122850  1
  O  O41  1  0.35670150  0.64329850  0.07877150  1
  O  O42  1  0.64329850  0.07877150  0.35670150  1
  O  O43  1  0.64329850  0.35670150  0.07877150  1
  O  O44  1  0.64329850  0.92122850  0.64329850  1
  O  O45  1  0.07877150  0.35670150  0.64329850  1
