# generated using pymatgen
data_Mg6Bi2PN
_symmetry_space_group_name_H-M   'P 1'
_cell_length_a   9.35066800
_cell_length_b   9.35066800
_cell_length_c   9.35066800
_cell_angle_alpha   90.00000000
_cell_angle_beta   90.00000000
_cell_angle_gamma   90.00000000
_symmetry_Int_Tables_number   1
_chemical_formula_structural   Mg6Bi2PN
_chemical_formula_sum   'Mg24 Bi8 P4 N4'
_cell_volume   817.57558221
_cell_formula_units_Z   4
loop_
 _symmetry_equiv_pos_site_id
 _symmetry_equiv_pos_as_xyz
  1  'x, y, z'
loop_
 _atom_site_type_symbol
 _atom_site_label
 _atom_site_symmetry_multiplicity
 _atom_site_fract_x
 _atom_site_fract_y
 _atom_site_fract_z
 _atom_site_occupancy
  Mg  Mg0  1  0.76986700  0.00000000  0.00000000  1
  Mg  Mg1  1  0.50000000  0.73013300  0.00000000  1
  Mg  Mg2  1  0.50000000  0.26986700  0.00000000  1
  Mg  Mg3  1  0.00000000  0.00000000  0.76986700  1
  Mg  Mg4  1  0.50000000  0.00000000  0.73013300  1
  Mg  Mg5  1  0.23013300  0.00000000  0.00000000  1
  Mg  Mg6  1  0.76986700  0.50000000  0.50000000  1
  Mg  Mg7  1  0.50000000  0.23013300  0.50000000  1
  Mg  Mg8  1  0.50000000  0.76986700  0.50000000  1
  Mg  Mg9  1  0.00000000  0.50000000  0.26986700  1
  Mg  Mg10  1  0.50000000  0.50000000  0.23013300  1
  Mg  Mg11  1  0.23013300  0.50000000  0.50000000  1
  Mg  Mg12  1  0.26986700  0.00000000  0.50000000  1
  Mg  Mg13  1  0.00000000  0.73013300  0.50000000  1
  Mg  Mg14  1  0.00000000  0.26986700  0.50000000  1
  Mg  Mg15  1  0.50000000  0.00000000  0.26986700  1
  Mg  Mg16  1  0.00000000  0.00000000  0.23013300  1
  Mg  Mg17  1  0.73013300  0.00000000  0.50000000  1
  Mg  Mg18  1  0.26986700  0.50000000  0.00000000  1
  Mg  Mg19  1  0.00000000  0.23013300  0.00000000  1
  Mg  Mg20  1  0.00000000  0.76986700  0.00000000  1
  Mg  Mg21  1  0.50000000  0.50000000  0.76986700  1
  Mg  Mg22  1  0.00000000  0.50000000  0.73013300  1
  Mg  Mg23  1  0.73013300  0.50000000  0.00000000  1
  Bi  Bi24  1  0.25000000  0.75000000  0.75000000  1
  Bi  Bi25  1  0.25000000  0.25000000  0.75000000  1
  Bi  Bi26  1  0.25000000  0.25000000  0.25000000  1
  Bi  Bi27  1  0.25000000  0.75000000  0.25000000  1
  Bi  Bi28  1  0.75000000  0.75000000  0.25000000  1
  Bi  Bi29  1  0.75000000  0.25000000  0.25000000  1
  Bi  Bi30  1  0.75000000  0.25000000  0.75000000  1
  Bi  Bi31  1  0.75000000  0.75000000  0.75000000  1
  P  P32  1  0.50000000  0.00000000  0.00000000  1
  P  P33  1  0.50000000  0.50000000  0.50000000  1
  P  P34  1  0.00000000  0.00000000  0.50000000  1
  P  P35  1  0.00000000  0.50000000  0.00000000  1
  N  N36  1  0.00000000  0.00000000  0.00000000  1
  N  N37  1  0.00000000  0.50000000  0.50000000  1
  N  N38  1  0.50000000  0.00000000  0.50000000  1
  N  N39  1  0.50000000  0.50000000  0.00000000  1
