# generated using pymatgen
data_CuHO2
_symmetry_space_group_name_H-M   'P 1'
_cell_length_a   2.78873300
_cell_length_b   4.41104800
_cell_length_c   5.96742100
_cell_angle_alpha   90.00000000
_cell_angle_beta   90.00000000
_cell_angle_gamma   90.00000000
_symmetry_Int_Tables_number   1
_chemical_formula_structural   CuHO2
_chemical_formula_sum   'Cu2 H2 O4'
_cell_volume   73.40664879
_cell_formula_units_Z   2
loop_
 _symmetry_equiv_pos_site_id
 _symmetry_equiv_pos_as_xyz
  1  'x, y, z'
loop_
 _atom_site_type_symbol
 _atom_site_label
 _atom_site_symmetry_multiplicity
 _atom_site_fract_x
 _atom_site_fract_y
 _atom_site_fract_z
 _atom_site_occupancy
  Cu  Cu0  1  0.50000000  0.78636800  0.23596200  1
  Cu  Cu1  1  0.00000000  0.28636800  0.76403800  1
  H  H2  1  0.00000000  0.32634000  0.25644300  1
  H  H3  1  0.50000000  0.82634000  0.74355700  1
  O  O4  1  0.50000000  0.03930100  0.65926700  1
  O  O5  1  0.00000000  0.53930100  0.34073300  1
  O  O6  1  0.50000000  0.53438100  0.85505600  1
  O  O7  1  0.00000000  0.03438100  0.14494400  1
