# generated using pymatgen
data_Rb2NaSbF6
_symmetry_space_group_name_H-M   'P 1'
_cell_length_a   9.06363400
_cell_length_b   9.06363400
_cell_length_c   9.06363400
_cell_angle_alpha   90.00000000
_cell_angle_beta   90.00000000
_cell_angle_gamma   90.00000000
_symmetry_Int_Tables_number   1
_chemical_formula_structural   Rb2NaSbF6
_chemical_formula_sum   'Rb8 Na4 Sb4 F24'
_cell_volume   744.57265039
_cell_formula_units_Z   4
loop_
 _symmetry_equiv_pos_site_id
 _symmetry_equiv_pos_as_xyz
  1  'x, y, z'
loop_
 _atom_site_type_symbol
 _atom_site_label
 _atom_site_symmetry_multiplicity
 _atom_site_fract_x
 _atom_site_fract_y
 _atom_site_fract_z
 _atom_site_occupancy
  Rb  Rb0  1  0.25000000  0.25000000  0.75000000  1
  Rb  Rb1  1  0.25000000  0.75000000  0.75000000  1
  Rb  Rb2  1  0.25000000  0.75000000  0.25000000  1
  Rb  Rb3  1  0.25000000  0.25000000  0.25000000  1
  Rb  Rb4  1  0.75000000  0.25000000  0.25000000  1
  Rb  Rb5  1  0.75000000  0.75000000  0.25000000  1
  Rb  Rb6  1  0.75000000  0.75000000  0.75000000  1
  Rb  Rb7  1  0.75000000  0.25000000  0.75000000  1
  Na  Na8  1  0.50000000  0.00000000  0.00000000  1
  Na  Na9  1  0.50000000  0.50000000  0.50000000  1
  Na  Na10  1  0.00000000  0.00000000  0.50000000  1
  Na  Na11  1  0.00000000  0.50000000  0.00000000  1
  Sb  Sb12  1  0.00000000  0.00000000  0.00000000  1
  Sb  Sb13  1  0.00000000  0.50000000  0.50000000  1
  Sb  Sb14  1  0.50000000  0.00000000  0.50000000  1
  Sb  Sb15  1  0.50000000  0.50000000  0.00000000  1
  F  F16  1  0.24370200  0.00000000  0.00000000  1
  F  F17  1  0.50000000  0.00000000  0.74370200  1
  F  F18  1  0.75629800  0.00000000  0.00000000  1
  F  F19  1  0.50000000  0.74370200  0.00000000  1
  F  F20  1  0.50000000  0.25629800  0.00000000  1
  F  F21  1  0.00000000  0.00000000  0.75629800  1
  F  F22  1  0.24370200  0.50000000  0.50000000  1
  F  F23  1  0.50000000  0.50000000  0.24370200  1
  F  F24  1  0.75629800  0.50000000  0.50000000  1
  F  F25  1  0.50000000  0.24370200  0.50000000  1
  F  F26  1  0.50000000  0.75629800  0.50000000  1
  F  F27  1  0.00000000  0.50000000  0.25629800  1
  F  F28  1  0.74370200  0.00000000  0.50000000  1
  F  F29  1  0.00000000  0.00000000  0.24370200  1
  F  F30  1  0.25629800  0.00000000  0.50000000  1
  F  F31  1  0.00000000  0.74370200  0.50000000  1
  F  F32  1  0.00000000  0.25629800  0.50000000  1
  F  F33  1  0.50000000  0.00000000  0.25629800  1
  F  F34  1  0.74370200  0.50000000  0.00000000  1
  F  F35  1  0.00000000  0.50000000  0.74370200  1
  F  F36  1  0.25629800  0.50000000  0.00000000  1
  F  F37  1  0.00000000  0.24370200  0.00000000  1
  F  F38  1  0.00000000  0.75629800  0.00000000  1
  F  F39  1  0.50000000  0.50000000  0.75629800  1
