# generated using pymatgen
data_Na6P4W
_symmetry_space_group_name_H-M   'P 1'
_cell_length_a   9.17094971
_cell_length_b   9.17094971
_cell_length_c   7.19247400
_cell_angle_alpha   90.00000000
_cell_angle_beta   90.00000000
_cell_angle_gamma   120.00000000
_symmetry_Int_Tables_number   1
_chemical_formula_structural   Na6P4W
_chemical_formula_sum   'Na12 P8 W2'
_cell_volume   523.88692058
_cell_formula_units_Z   2
loop_
 _symmetry_equiv_pos_site_id
 _symmetry_equiv_pos_as_xyz
  1  'x, y, z'
loop_
 _atom_site_type_symbol
 _atom_site_label
 _atom_site_symmetry_multiplicity
 _atom_site_fract_x
 _atom_site_fract_y
 _atom_site_fract_z
 _atom_site_occupancy
  Na  Na0  1  0.29569800  0.14784900  0.78518000  1
  Na  Na1  1  0.14784900  0.29569800  0.28518000  1
  Na  Na2  1  0.46721500  0.93443000  0.60804300  1
  Na  Na3  1  0.53278500  0.46721500  0.10804300  1
  Na  Na4  1  0.93443000  0.46721500  0.10804300  1
  Na  Na5  1  0.06557000  0.53278500  0.60804300  1
  Na  Na6  1  0.46721500  0.53278500  0.60804300  1
  Na  Na7  1  0.53278500  0.06557000  0.10804300  1
  Na  Na8  1  0.85215100  0.70430200  0.78518000  1
  Na  Na9  1  0.85215100  0.14784900  0.78518000  1
  Na  Na10  1  0.70430200  0.85215100  0.28518000  1
  Na  Na11  1  0.14784900  0.85215100  0.28518000  1
  P  P12  1  0.61135700  0.80567850  0.89373600  1
  P  P13  1  0.19432150  0.80567850  0.89373600  1
  P  P14  1  0.66666667  0.33333333  0.81819900  1
  P  P15  1  0.33333333  0.66666667  0.31819900  1
  P  P16  1  0.19432150  0.38864300  0.89373600  1
  P  P17  1  0.80567850  0.61135700  0.39373600  1
  P  P18  1  0.38864300  0.19432150  0.39373600  1
  P  P19  1  0.80567850  0.19432150  0.39373600  1
  W  W20  1  0.33333333  0.66666667  0.99582300  1
  W  W21  1  0.66666667  0.33333333  0.49582300  1
