# generated using pymatgen
data_Ba3BAsO3
_symmetry_space_group_name_H-M   'P 1'
_cell_length_a   5.59639807
_cell_length_b   5.59639807
_cell_length_c   14.03245000
_cell_angle_alpha   90.00000000
_cell_angle_beta   90.00000000
_cell_angle_gamma   120.00000000
_symmetry_Int_Tables_number   1
_chemical_formula_structural   Ba3BAsO3
_chemical_formula_sum   'Ba6 B2 As2 O6'
_cell_volume   380.61099634
_cell_formula_units_Z   2
loop_
 _symmetry_equiv_pos_site_id
 _symmetry_equiv_pos_as_xyz
  1  'x, y, z'
loop_
 _atom_site_type_symbol
 _atom_site_label
 _atom_site_symmetry_multiplicity
 _atom_site_fract_x
 _atom_site_fract_y
 _atom_site_fract_z
 _atom_site_occupancy
  Ba  Ba0  1  0.66666667  0.33333333  0.89846000  1
  Ba  Ba1  1  0.00000000  0.00000000  0.75000000  1
  Ba  Ba2  1  0.00000000  0.00000000  0.25000000  1
  Ba  Ba3  1  0.33333333  0.66666667  0.39846000  1
  Ba  Ba4  1  0.33333333  0.66666667  0.10154000  1
  Ba  Ba5  1  0.66666667  0.33333333  0.60154000  1
  B  B6  1  0.33333333  0.66666667  0.75000000  1
  B  B7  1  0.66666667  0.33333333  0.25000000  1
  As  As8  1  0.00000000  0.00000000  0.50000000  1
  As  As9  1  0.00000000  0.00000000  0.00000000  1
  O  O10  1  0.95543900  0.47771950  0.25000000  1
  O  O11  1  0.47771950  0.95543900  0.75000000  1
  O  O12  1  0.04456100  0.52228050  0.75000000  1
  O  O13  1  0.52228050  0.47771950  0.25000000  1
  O  O14  1  0.52228050  0.04456100  0.25000000  1
  O  O15  1  0.47771950  0.52228050  0.75000000  1
