# generated using pymatgen
data_Cu2SiS3
_symmetry_space_group_name_H-M   'P 1'
_cell_length_a   6.40343400
_cell_length_b   11.00021200
_cell_length_c   6.08898100
_cell_angle_alpha   90.00000000
_cell_angle_beta   90.00000000
_cell_angle_gamma   90.00000000
_symmetry_Int_Tables_number   1
_chemical_formula_structural   Cu2SiS3
_chemical_formula_sum   'Cu8 Si4 S12'
_cell_volume   428.90253353
_cell_formula_units_Z   4
loop_
 _symmetry_equiv_pos_site_id
 _symmetry_equiv_pos_as_xyz
  1  'x, y, z'
loop_
 _atom_site_type_symbol
 _atom_site_label
 _atom_site_symmetry_multiplicity
 _atom_site_fract_x
 _atom_site_fract_y
 _atom_site_fract_z
 _atom_site_occupancy
  Cu  Cu0  1  0.16261800  0.16096600  0.98043000  1
  Cu  Cu1  1  0.83738200  0.83903400  0.48043000  1
  Cu  Cu2  1  0.83738200  0.16096600  0.48043000  1
  Cu  Cu3  1  0.16261800  0.83903400  0.98043000  1
  Cu  Cu4  1  0.66261800  0.66096600  0.98043000  1
  Cu  Cu5  1  0.33738200  0.33903400  0.48043000  1
  Cu  Cu6  1  0.33738200  0.66096600  0.48043000  1
  Cu  Cu7  1  0.66261800  0.33903400  0.98043000  1
  Si  Si8  1  0.66848800  0.00000000  0.01066400  1
  Si  Si9  1  0.33151200  0.00000000  0.51066400  1
  Si  Si10  1  0.16848800  0.50000000  0.01066400  1
  Si  Si11  1  0.83151200  0.50000000  0.51066400  1
  S  S12  1  0.17775200  0.16189400  0.60554100  1
  S  S13  1  0.82224800  0.83810600  0.10554100  1
  S  S14  1  0.34425000  0.00000000  0.13839500  1
  S  S15  1  0.65575000  0.00000000  0.63839500  1
  S  S16  1  0.17775200  0.83810600  0.60554100  1
  S  S17  1  0.82224800  0.16189400  0.10554100  1
  S  S18  1  0.67775200  0.66189400  0.60554100  1
  S  S19  1  0.32224800  0.33810600  0.10554100  1
  S  S20  1  0.84425000  0.50000000  0.13839500  1
  S  S21  1  0.15575000  0.50000000  0.63839500  1
  S  S22  1  0.67775200  0.33810600  0.60554100  1
  S  S23  1  0.32224800  0.66189400  0.10554100  1
