# generated using pymatgen
data_KCaBr3
_symmetry_space_group_name_H-M   'P 1'
_cell_length_a   8.09955800
_cell_length_b   8.08354000
_cell_length_c   5.71630700
_cell_angle_alpha   90.00000000
_cell_angle_beta   90.14377316
_cell_angle_gamma   90.00000000
_symmetry_Int_Tables_number   1
_chemical_formula_structural   KCaBr3
_chemical_formula_sum   'K2 Ca2 Br6'
_cell_volume   374.26316747
_cell_formula_units_Z   2
loop_
 _symmetry_equiv_pos_site_id
 _symmetry_equiv_pos_as_xyz
  1  'x, y, z'
loop_
 _atom_site_type_symbol
 _atom_site_label
 _atom_site_symmetry_multiplicity
 _atom_site_fract_x
 _atom_site_fract_y
 _atom_site_fract_z
 _atom_site_occupancy
  K  K0  1  0.00246700  0.00000000  0.00008200  1
  K  K1  1  0.50246700  0.50000000  0.00008200  1
  Ca  Ca2  1  0.50520600  0.00000000  0.48311900  1
  Ca  Ca3  1  0.00520600  0.50000000  0.48311900  1
  Br  Br4  1  0.25335650  0.25108750  0.48484100  1
  Br  Br5  1  0.49206300  0.00000000  0.98384100  1
  Br  Br6  1  0.25335650  0.74891250  0.48484100  1
  Br  Br7  1  0.75335650  0.75108750  0.48484100  1
  Br  Br8  1  0.99206300  0.50000000  0.98384100  1
  Br  Br9  1  0.75335650  0.24891250  0.48484100  1
