# generated using pymatgen
data_Ca3VN3
_symmetry_space_group_name_H-M   'P 1'
_cell_length_a   8.53228800
_cell_length_b   10.41212800
_cell_length_c   5.08656600
_cell_angle_alpha   90.00000000
_cell_angle_beta   90.00000000
_cell_angle_gamma   90.00000000
_symmetry_Int_Tables_number   1
_chemical_formula_structural   Ca3VN3
_chemical_formula_sum   'Ca12 V4 N12'
_cell_volume   451.88683461
_cell_formula_units_Z   4
loop_
 _symmetry_equiv_pos_site_id
 _symmetry_equiv_pos_as_xyz
  1  'x, y, z'
loop_
 _atom_site_type_symbol
 _atom_site_label
 _atom_site_symmetry_multiplicity
 _atom_site_fract_x
 _atom_site_fract_y
 _atom_site_fract_z
 _atom_site_occupancy
  Ca  Ca0  1  0.71293100  0.11504800  0.25000000  1
  Ca  Ca1  1  0.28706900  0.88495200  0.75000000  1
  Ca  Ca2  1  0.50000000  0.60859200  0.75000000  1
  Ca  Ca3  1  0.50000000  0.39140800  0.25000000  1
  Ca  Ca4  1  0.71293100  0.88495200  0.75000000  1
  Ca  Ca5  1  0.28706900  0.11504800  0.25000000  1
  Ca  Ca6  1  0.21293100  0.61504800  0.25000000  1
  Ca  Ca7  1  0.78706900  0.38495200  0.75000000  1
  Ca  Ca8  1  0.00000000  0.10859200  0.75000000  1
  Ca  Ca9  1  0.00000000  0.89140800  0.25000000  1
  Ca  Ca10  1  0.21293100  0.38495200  0.75000000  1
  Ca  Ca11  1  0.78706900  0.61504800  0.25000000  1
  V  V12  1  0.50000000  0.19753500  0.75000000  1
  V  V13  1  0.50000000  0.80246500  0.25000000  1
  V  V14  1  0.00000000  0.69753500  0.75000000  1
  V  V15  1  0.00000000  0.30246500  0.25000000  1
  N  N16  1  0.69295400  0.87624400  0.25000000  1
  N  N17  1  0.30704600  0.12375600  0.75000000  1
  N  N18  1  0.50000000  0.62705400  0.25000000  1
  N  N19  1  0.50000000  0.37294600  0.75000000  1
  N  N20  1  0.30704600  0.87624400  0.25000000  1
  N  N21  1  0.69295400  0.12375600  0.75000000  1
  N  N22  1  0.19295400  0.37624400  0.25000000  1
  N  N23  1  0.80704600  0.62375600  0.75000000  1
  N  N24  1  0.00000000  0.12705400  0.25000000  1
  N  N25  1  0.00000000  0.87294600  0.75000000  1
  N  N26  1  0.80704600  0.37624400  0.25000000  1
  N  N27  1  0.19295400  0.62375600  0.75000000  1
