# generated using pymatgen
data_TlGaSe2
_symmetry_space_group_name_H-M   'P 1'
_cell_length_a   8.22787200
_cell_length_b   8.22787200
_cell_length_c   6.53277600
_cell_angle_alpha   90.00000000
_cell_angle_beta   90.00000000
_cell_angle_gamma   90.00000000
_symmetry_Int_Tables_number   1
_chemical_formula_structural   TlGaSe2
_chemical_formula_sum   'Tl4 Ga4 Se8'
_cell_volume   442.25507035
_cell_formula_units_Z   4
loop_
 _symmetry_equiv_pos_site_id
 _symmetry_equiv_pos_as_xyz
  1  'x, y, z'
loop_
 _atom_site_type_symbol
 _atom_site_label
 _atom_site_symmetry_multiplicity
 _atom_site_fract_x
 _atom_site_fract_y
 _atom_site_fract_z
 _atom_site_occupancy
  Tl  Tl0  1  0.00000000  0.00000000  0.75000000  1
  Tl  Tl1  1  0.00000000  0.00000000  0.25000000  1
  Tl  Tl2  1  0.50000000  0.50000000  0.25000000  1
  Tl  Tl3  1  0.50000000  0.50000000  0.75000000  1
  Ga  Ga4  1  0.50000000  0.00000000  0.25000000  1
  Ga  Ga5  1  0.50000000  0.00000000  0.75000000  1
  Ga  Ga6  1  0.00000000  0.50000000  0.75000000  1
  Ga  Ga7  1  0.00000000  0.50000000  0.25000000  1
  Se  Se8  1  0.34080200  0.15919800  0.00000000  1
  Se  Se9  1  0.34080200  0.84080200  0.50000000  1
  Se  Se10  1  0.65919800  0.84080200  0.00000000  1
  Se  Se11  1  0.65919800  0.15919800  0.50000000  1
  Se  Se12  1  0.84080200  0.65919800  0.50000000  1
  Se  Se13  1  0.84080200  0.34080200  0.00000000  1
  Se  Se14  1  0.15919800  0.34080200  0.50000000  1
  Se  Se15  1  0.15919800  0.65919800  0.00000000  1
