# generated using pymatgen
data_Al6Cd4SO12
_symmetry_space_group_name_H-M   'P 1'
_cell_length_a   8.94597000
_cell_length_b   8.94597000
_cell_length_c   8.94597000
_cell_angle_alpha   90.00000000
_cell_angle_beta   90.00000000
_cell_angle_gamma   90.00000000
_symmetry_Int_Tables_number   1
_chemical_formula_structural   Al6Cd4SO12
_chemical_formula_sum   'Al12 Cd8 S2 O24'
_cell_volume   715.94937178
_cell_formula_units_Z   2
loop_
 _symmetry_equiv_pos_site_id
 _symmetry_equiv_pos_as_xyz
  1  'x, y, z'
loop_
 _atom_site_type_symbol
 _atom_site_label
 _atom_site_symmetry_multiplicity
 _atom_site_fract_x
 _atom_site_fract_y
 _atom_site_fract_z
 _atom_site_occupancy
  Al  Al0  1  0.50000000  0.25000000  0.00000000  1
  Al  Al1  1  0.00000000  0.25000000  0.50000000  1
  Al  Al2  1  0.50000000  0.00000000  0.25000000  1
  Al  Al3  1  0.00000000  0.50000000  0.25000000  1
  Al  Al4  1  0.25000000  0.50000000  0.00000000  1
  Al  Al5  1  0.25000000  0.00000000  0.50000000  1
  Al  Al6  1  0.00000000  0.75000000  0.50000000  1
  Al  Al7  1  0.50000000  0.75000000  0.00000000  1
  Al  Al8  1  0.00000000  0.50000000  0.75000000  1
  Al  Al9  1  0.50000000  0.00000000  0.75000000  1
  Al  Al10  1  0.75000000  0.00000000  0.50000000  1
  Al  Al11  1  0.75000000  0.50000000  0.00000000  1
  Cd  Cd12  1  0.16582350  0.83417650  0.16582350  1
  Cd  Cd13  1  0.83417650  0.16582350  0.16582350  1
  Cd  Cd14  1  0.33417650  0.33417650  0.33417650  1
  Cd  Cd15  1  0.16582350  0.16582350  0.83417650  1
  Cd  Cd16  1  0.66582350  0.33417650  0.66582350  1
  Cd  Cd17  1  0.33417650  0.66582350  0.66582350  1
  Cd  Cd18  1  0.83417650  0.83417650  0.83417650  1
  Cd  Cd19  1  0.66582350  0.66582350  0.33417650  1
  S  S20  1  0.00000000  0.00000000  0.00000000  1
  S  S21  1  0.50000000  0.50000000  0.50000000  1
  O  O22  1  0.41331600  0.85978100  0.14021900  1
  O  O23  1  0.35978100  0.35978100  0.08668400  1
  O  O24  1  0.41331600  0.14021900  0.85978100  1
  O  O25  1  0.14021900  0.41331600  0.85978100  1
  O  O26  1  0.14021900  0.58668400  0.14021900  1
  O  O27  1  0.58668400  0.14021900  0.14021900  1
  O  O28  1  0.14021900  0.14021900  0.58668400  1
  O  O29  1  0.85978100  0.14021900  0.41331600  1
  O  O30  1  0.14021900  0.85978100  0.41331600  1
  O  O31  1  0.35978100  0.08668400  0.35978100  1
  O  O32  1  0.85978100  0.41331600  0.14021900  1
  O  O33  1  0.08668400  0.35978100  0.35978100  1
  O  O34  1  0.91331600  0.35978100  0.64021900  1
  O  O35  1  0.85978100  0.85978100  0.58668400  1
  O  O36  1  0.91331600  0.64021900  0.35978100  1
  O  O37  1  0.64021900  0.91331600  0.35978100  1
  O  O38  1  0.64021900  0.08668400  0.64021900  1
  O  O39  1  0.08668400  0.64021900  0.64021900  1
  O  O40  1  0.64021900  0.64021900  0.08668400  1
  O  O41  1  0.35978100  0.64021900  0.91331600  1
  O  O42  1  0.64021900  0.35978100  0.91331600  1
  O  O43  1  0.85978100  0.58668400  0.85978100  1
  O  O44  1  0.35978100  0.91331600  0.64021900  1
  O  O45  1  0.58668400  0.85978100  0.85978100  1
