# generated using pymatgen
data_Ba2HfS4
_symmetry_space_group_name_H-M   'P 1'
_cell_length_a   4.96669200
_cell_length_b   4.96669200
_cell_length_c   15.86660200
_cell_angle_alpha   90.00000000
_cell_angle_beta   90.00000000
_cell_angle_gamma   90.00000000
_symmetry_Int_Tables_number   1
_chemical_formula_structural   Ba2HfS4
_chemical_formula_sum   'Ba4 Hf2 S8'
_cell_volume   391.39780498
_cell_formula_units_Z   2
loop_
 _symmetry_equiv_pos_site_id
 _symmetry_equiv_pos_as_xyz
  1  'x, y, z'
loop_
 _atom_site_type_symbol
 _atom_site_label
 _atom_site_symmetry_multiplicity
 _atom_site_fract_x
 _atom_site_fract_y
 _atom_site_fract_z
 _atom_site_occupancy
  Ba  Ba0  1  0.00000000  0.00000000  0.35781300  1
  Ba  Ba1  1  0.50000000  0.50000000  0.14218700  1
  Ba  Ba2  1  0.50000000  0.50000000  0.85781300  1
  Ba  Ba3  1  0.00000000  0.00000000  0.64218700  1
  Hf  Hf4  1  0.00000000  0.00000000  0.00000000  1
  Hf  Hf5  1  0.50000000  0.50000000  0.50000000  1
  S  S6  1  0.00000000  0.50000000  0.00000000  1
  S  S7  1  0.50000000  0.00000000  0.00000000  1
  S  S8  1  0.50000000  0.50000000  0.33818200  1
  S  S9  1  0.00000000  0.00000000  0.16181800  1
  S  S10  1  0.50000000  0.00000000  0.50000000  1
  S  S11  1  0.00000000  0.50000000  0.50000000  1
  S  S12  1  0.00000000  0.00000000  0.83818200  1
  S  S13  1  0.50000000  0.50000000  0.66181800  1
