# generated using pymatgen
data_LaWN3
_symmetry_space_group_name_H-M   'P 1'
_cell_length_a   10.96734400
_cell_length_b   10.18217200
_cell_length_c   6.41669344
_cell_angle_alpha   90.00000000
_cell_angle_beta   109.00358824
_cell_angle_gamma   90.00000000
_symmetry_Int_Tables_number   1
_chemical_formula_structural   LaWN3
_chemical_formula_sum   'La8 W8 N24'
_cell_volume   677.50715381
_cell_formula_units_Z   8
loop_
 _symmetry_equiv_pos_site_id
 _symmetry_equiv_pos_as_xyz
  1  'x, y, z'
loop_
 _atom_site_type_symbol
 _atom_site_label
 _atom_site_symmetry_multiplicity
 _atom_site_fract_x
 _atom_site_fract_y
 _atom_site_fract_z
 _atom_site_occupancy
  La  La0  1  0.00000000  0.90617400  0.75000000  1
  La  La1  1  0.00000000  0.69342200  0.25000000  1
  La  La2  1  0.00000000  0.30657800  0.75000000  1
  La  La3  1  0.00000000  0.09382600  0.25000000  1
  La  La4  1  0.50000000  0.40617400  0.75000000  1
  La  La5  1  0.50000000  0.19342200  0.25000000  1
  La  La6  1  0.50000000  0.80657800  0.75000000  1
  La  La7  1  0.50000000  0.59382600  0.25000000  1
  W  W8  1  0.20869050  0.58809450  0.74770700  1
  W  W9  1  0.79130950  0.58809450  0.75229300  1
  W  W10  1  0.79130950  0.41190550  0.25229300  1
  W  W11  1  0.20869050  0.41190550  0.24770700  1
  W  W12  1  0.70869050  0.08809450  0.74770700  1
  W  W13  1  0.29130950  0.08809450  0.75229300  1
  W  W14  1  0.29130950  0.91190550  0.25229300  1
  W  W15  1  0.70869050  0.91190550  0.24770700  1
  N  N16  1  0.84822300  0.51617000  0.51524700  1
  N  N17  1  0.13104550  0.74270550  0.64579200  1
  N  N18  1  0.61386550  0.61092550  0.65451100  1
  N  N19  1  0.13104550  0.25729450  0.14579200  1
  N  N20  1  0.86895450  0.25729450  0.35420800  1
  N  N21  1  0.38613450  0.61092550  0.84548900  1
  N  N22  1  0.61386550  0.38907450  0.15451100  1
  N  N23  1  0.15177700  0.51617000  0.98475300  1
  N  N24  1  0.84822300  0.48383000  0.01524700  1
  N  N25  1  0.15177700  0.48383000  0.48475300  1
  N  N26  1  0.86895450  0.74270550  0.85420800  1
  N  N27  1  0.38613450  0.38907450  0.34548900  1
  N  N28  1  0.34822300  0.01617000  0.51524700  1
  N  N29  1  0.63104550  0.24270550  0.64579200  1
  N  N30  1  0.11386550  0.11092550  0.65451100  1
  N  N31  1  0.63104550  0.75729450  0.14579200  1
  N  N32  1  0.36895450  0.75729450  0.35420800  1
  N  N33  1  0.88613450  0.11092550  0.84548900  1
  N  N34  1  0.11386550  0.88907450  0.15451100  1
  N  N35  1  0.65177700  0.01617000  0.98475300  1
  N  N36  1  0.34822300  0.98383000  0.01524700  1
  N  N37  1  0.65177700  0.98383000  0.48475300  1
  N  N38  1  0.36895450  0.24270550  0.85420800  1
  N  N39  1  0.88613450  0.88907450  0.34548900  1
