# generated using pymatgen
data_RbPbCl3
_symmetry_space_group_name_H-M   'P 1'
_cell_length_a   4.33427200
_cell_length_b   14.45542200
_cell_length_c   10.75373700
_cell_angle_alpha   90.00000000
_cell_angle_beta   90.00000000
_cell_angle_gamma   90.00000000
_symmetry_Int_Tables_number   1
_chemical_formula_structural   RbPbCl3
_chemical_formula_sum   'Rb4 Pb4 Cl12'
_cell_volume   673.76174334
_cell_formula_units_Z   4
loop_
 _symmetry_equiv_pos_site_id
 _symmetry_equiv_pos_as_xyz
  1  'x, y, z'
loop_
 _atom_site_type_symbol
 _atom_site_label
 _atom_site_symmetry_multiplicity
 _atom_site_fract_x
 _atom_site_fract_y
 _atom_site_fract_z
 _atom_site_occupancy
  Rb  Rb0  1  0.00000000  0.25219200  0.25000000  1
  Rb  Rb1  1  0.50000000  0.24780800  0.75000000  1
  Rb  Rb2  1  0.50000000  0.75219200  0.25000000  1
  Rb  Rb3  1  0.00000000  0.74780800  0.75000000  1
  Pb  Pb4  1  0.00000000  0.00000000  0.00000000  1
  Pb  Pb5  1  0.00000000  0.00000000  0.50000000  1
  Pb  Pb6  1  0.50000000  0.50000000  0.00000000  1
  Pb  Pb7  1  0.50000000  0.50000000  0.50000000  1
  Cl  Cl8  1  0.00000000  0.36749700  0.94393100  1
  Cl  Cl9  1  0.50000000  0.13250300  0.44393100  1
  Cl  Cl10  1  0.00000000  0.36749700  0.55606900  1
  Cl  Cl11  1  0.50000000  0.13250300  0.05606900  1
  Cl  Cl12  1  0.50000000  0.42509200  0.25000000  1
  Cl  Cl13  1  0.00000000  0.07490800  0.75000000  1
  Cl  Cl14  1  0.50000000  0.86749700  0.94393100  1
  Cl  Cl15  1  0.00000000  0.63250300  0.44393100  1
  Cl  Cl16  1  0.50000000  0.86749700  0.55606900  1
  Cl  Cl17  1  0.00000000  0.63250300  0.05606900  1
  Cl  Cl18  1  0.00000000  0.92509200  0.25000000  1
  Cl  Cl19  1  0.50000000  0.57490800  0.75000000  1
