# generated using pymatgen
data_Ba2Mg(BO3)2
_symmetry_space_group_name_H-M   'P 1'
_cell_length_a   5.40703607
_cell_length_b   5.40703607
_cell_length_c   16.90230422
_cell_angle_alpha   90.00000000
_cell_angle_beta   90.00000000
_cell_angle_gamma   120.00000000
_symmetry_Int_Tables_number   1
_chemical_formula_structural   Ba2Mg(BO3)2
_chemical_formula_sum   'Ba6 Mg3 B6 O18'
_cell_volume   427.95201819
_cell_formula_units_Z   3
loop_
 _symmetry_equiv_pos_site_id
 _symmetry_equiv_pos_as_xyz
  1  'x, y, z'
loop_
 _atom_site_type_symbol
 _atom_site_label
 _atom_site_symmetry_multiplicity
 _atom_site_fract_x
 _atom_site_fract_y
 _atom_site_fract_z
 _atom_site_occupancy
  Ba  Ba0  1  0.00000000  0.00000000  0.22398800  1
  Ba  Ba1  1  0.66666667  0.33333333  0.10934533  1
  Ba  Ba2  1  0.66666667  0.33333333  0.55732133  1
  Ba  Ba3  1  0.33333333  0.66666667  0.44267867  1
  Ba  Ba4  1  0.33333333  0.66666667  0.89065467  1
  Ba  Ba5  1  0.00000000  0.00000000  0.77601200  1
  Mg  Mg6  1  0.00000000  0.00000000  0.00000000  1
  Mg  Mg7  1  0.66666667  0.33333333  0.33333333  1
  Mg  Mg8  1  0.33333333  0.66666667  0.66666667  1
  B  B9  1  0.33333333  0.66666667  0.25703767  1
  B  B10  1  0.33333333  0.66666667  0.07629567  1
  B  B11  1  0.00000000  0.00000000  0.59037100  1
  B  B12  1  0.00000000  0.00000000  0.40962900  1
  B  B13  1  0.66666667  0.33333333  0.92370433  1
  B  B14  1  0.66666667  0.33333333  0.74296233  1
  O  O15  1  0.18409200  0.81590800  0.07562300  1
  O  O16  1  0.63181600  0.81590800  0.07562300  1
  O  O17  1  0.18409200  0.36818400  0.07562300  1
  O  O18  1  0.48257467  0.96514933  0.25771033  1
  O  O19  1  0.03485067  0.51742533  0.25771033  1
  O  O20  1  0.48257467  0.51742533  0.25771033  1
  O  O21  1  0.85075867  0.14924133  0.40895633  1
  O  O22  1  0.29848267  0.14924133  0.40895633  1
  O  O23  1  0.85075867  0.70151733  0.40895633  1
  O  O24  1  0.14924133  0.29848267  0.59104367  1
  O  O25  1  0.70151733  0.85075867  0.59104367  1
  O  O26  1  0.14924133  0.85075867  0.59104367  1
  O  O27  1  0.51742533  0.48257467  0.74228967  1
  O  O28  1  0.96514933  0.48257467  0.74228967  1
  O  O29  1  0.51742533  0.03485067  0.74228967  1
  O  O30  1  0.81590800  0.63181600  0.92437700  1
  O  O31  1  0.36818400  0.18409200  0.92437700  1
  O  O32  1  0.81590800  0.18409200  0.92437700  1
