# generated using pymatgen
data_YWN3
_symmetry_space_group_name_H-M   'P 1'
_cell_length_a   11.18875200
_cell_length_b   9.64525200
_cell_length_c   6.31064473
_cell_angle_alpha   90.00000000
_cell_angle_beta   112.18356613
_cell_angle_gamma   90.00000000
_symmetry_Int_Tables_number   1
_chemical_formula_structural   YWN3
_chemical_formula_sum   'Y8 W8 N24'
_cell_volume   630.62336662
_cell_formula_units_Z   8
loop_
 _symmetry_equiv_pos_site_id
 _symmetry_equiv_pos_as_xyz
  1  'x, y, z'
loop_
 _atom_site_type_symbol
 _atom_site_label
 _atom_site_symmetry_multiplicity
 _atom_site_fract_x
 _atom_site_fract_y
 _atom_site_fract_z
 _atom_site_occupancy
  Y  Y0  1  0.00000000  0.28872500  0.25000000  1
  Y  Y1  1  0.00000000  0.90976400  0.25000000  1
  Y  Y2  1  0.00000000  0.71127500  0.75000000  1
  Y  Y3  1  0.00000000  0.09023600  0.75000000  1
  Y  Y4  1  0.50000000  0.78872500  0.25000000  1
  Y  Y5  1  0.50000000  0.40976400  0.25000000  1
  Y  Y6  1  0.50000000  0.21127500  0.75000000  1
  Y  Y7  1  0.50000000  0.59023600  0.75000000  1
  W  W8  1  0.79076600  0.41090500  0.77511600  1
  W  W9  1  0.20923400  0.58909500  0.22488400  1
  W  W10  1  0.20923400  0.41090500  0.72488400  1
  W  W11  1  0.79076600  0.58909500  0.27511600  1
  W  W12  1  0.29076600  0.91090500  0.77511600  1
  W  W13  1  0.70923400  0.08909500  0.22488400  1
  W  W14  1  0.70923400  0.91090500  0.72488400  1
  W  W15  1  0.29076600  0.08909500  0.27511600  1
  N  N16  1  0.86948000  0.24460400  0.83992000  1
  N  N17  1  0.85496800  0.51148000  0.57260000  1
  N  N18  1  0.61083800  0.60848200  0.15506100  1
  N  N19  1  0.13052000  0.75539600  0.16008000  1
  N  N20  1  0.38916200  0.60848200  0.34493900  1
  N  N21  1  0.86948000  0.75539600  0.33992000  1
  N  N22  1  0.13052000  0.24460400  0.66008000  1
  N  N23  1  0.14503200  0.48852000  0.42740000  1
  N  N24  1  0.14503200  0.51148000  0.92740000  1
  N  N25  1  0.85496800  0.48852000  0.07260000  1
  N  N26  1  0.38916200  0.39151800  0.84493900  1
  N  N27  1  0.61083800  0.39151800  0.65506100  1
  N  N28  1  0.36948000  0.74460400  0.83992000  1
  N  N29  1  0.35496800  0.01148000  0.57260000  1
  N  N30  1  0.11083800  0.10848200  0.15506100  1
  N  N31  1  0.63052000  0.25539600  0.16008000  1
  N  N32  1  0.88916200  0.10848200  0.34493900  1
  N  N33  1  0.36948000  0.25539600  0.33992000  1
  N  N34  1  0.63052000  0.74460400  0.66008000  1
  N  N35  1  0.64503200  0.98852000  0.42740000  1
  N  N36  1  0.64503200  0.01148000  0.92740000  1
  N  N37  1  0.35496800  0.98852000  0.07260000  1
  N  N38  1  0.88916200  0.89151800  0.84493900  1
  N  N39  1  0.11083800  0.89151800  0.65506100  1
