# generated using pymatgen
data_Ba2ZnN2
_symmetry_space_group_name_H-M   'P 1'
_cell_length_a   4.22105800
_cell_length_b   4.22105800
_cell_length_c   13.05496200
_cell_angle_alpha   90.00000000
_cell_angle_beta   90.00000000
_cell_angle_gamma   90.00000000
_symmetry_Int_Tables_number   1
_chemical_formula_structural   Ba2ZnN2
_chemical_formula_sum   'Ba4 Zn2 N4'
_cell_volume   232.60457444
_cell_formula_units_Z   2
loop_
 _symmetry_equiv_pos_site_id
 _symmetry_equiv_pos_as_xyz
  1  'x, y, z'
loop_
 _atom_site_type_symbol
 _atom_site_label
 _atom_site_symmetry_multiplicity
 _atom_site_fract_x
 _atom_site_fract_y
 _atom_site_fract_z
 _atom_site_occupancy
  Ba  Ba0  1  0.50000000  0.50000000  0.15539100  1
  Ba  Ba1  1  0.00000000  0.00000000  0.34460900  1
  Ba  Ba2  1  0.00000000  0.00000000  0.65539100  1
  Ba  Ba3  1  0.50000000  0.50000000  0.84460900  1
  Zn  Zn4  1  0.00000000  0.00000000  0.00000000  1
  Zn  Zn5  1  0.50000000  0.50000000  0.50000000  1
  N  N6  1  0.50000000  0.50000000  0.35845500  1
  N  N7  1  0.00000000  0.00000000  0.14154500  1
  N  N8  1  0.00000000  0.00000000  0.85845500  1
  N  N9  1  0.50000000  0.50000000  0.64154500  1
