# generated using pymatgen
data_AgBiO2
_symmetry_space_group_name_H-M   'P 1'
_cell_length_a   12.78545000
_cell_length_b   3.60387000
_cell_length_c   6.70145401
_cell_angle_alpha   90.00000000
_cell_angle_beta   98.23391242
_cell_angle_gamma   90.00000000
_symmetry_Int_Tables_number   1
_chemical_formula_structural   AgBiO2
_chemical_formula_sum   'Ag4 Bi4 O8'
_cell_volume   305.60051191
_cell_formula_units_Z   4
loop_
 _symmetry_equiv_pos_site_id
 _symmetry_equiv_pos_as_xyz
  1  'x, y, z'
loop_
 _atom_site_type_symbol
 _atom_site_label
 _atom_site_symmetry_multiplicity
 _atom_site_fract_x
 _atom_site_fract_y
 _atom_site_fract_z
 _atom_site_occupancy
  Ag  Ag0  1  0.00000000  0.00000000  0.00000000  1
  Ag  Ag1  1  0.00000000  0.50000000  0.50000000  1
  Ag  Ag2  1  0.50000000  0.50000000  0.00000000  1
  Ag  Ag3  1  0.50000000  0.00000000  0.50000000  1
  Bi  Bi4  1  0.75374000  0.00000000  0.26097000  1
  Bi  Bi5  1  0.74626000  0.50000000  0.73903000  1
  Bi  Bi6  1  0.25374000  0.50000000  0.26097000  1
  Bi  Bi7  1  0.24626000  0.00000000  0.73903000  1
  O  O8  1  0.83613000  0.50000000  0.48302000  1
  O  O9  1  0.66387000  0.00000000  0.51698000  1
  O  O10  1  0.83927000  0.00000000  0.88349000  1
  O  O11  1  0.66073000  0.50000000  0.11651000  1
  O  O12  1  0.33613000  0.00000000  0.48302000  1
  O  O13  1  0.16387000  0.50000000  0.51698000  1
  O  O14  1  0.33927000  0.50000000  0.88349000  1
  O  O15  1  0.16073000  0.00000000  0.11651000  1
