# generated using pymatgen
data_AgBiO2
_symmetry_space_group_name_H-M   'P 1'
_cell_length_a   6.23223000
_cell_length_b   3.55443000
_cell_length_c   6.87578964
_cell_angle_alpha   90.00000000
_cell_angle_beta   98.79997109
_cell_angle_gamma   90.00000000
_symmetry_Int_Tables_number   1
_chemical_formula_structural   AgBiO2
_chemical_formula_sum   'Ag2 Bi2 O4'
_cell_volume   150.51971112
_cell_formula_units_Z   2
loop_
 _symmetry_equiv_pos_site_id
 _symmetry_equiv_pos_as_xyz
  1  'x, y, z'
loop_
 _atom_site_type_symbol
 _atom_site_label
 _atom_site_symmetry_multiplicity
 _atom_site_fract_x
 _atom_site_fract_y
 _atom_site_fract_z
 _atom_site_occupancy
  Ag  Ag0  1  0.81374000  0.75000000  0.91022000  1
  Ag  Ag1  1  0.18626000  0.25000000  0.08978000  1
  Bi  Bi2  1  0.75294000  0.25000000  0.38798000  1
  Bi  Bi3  1  0.24706000  0.75000000  0.61202000  1
  O  O4  1  0.28817000  0.25000000  0.81290000  1
  O  O5  1  0.71183000  0.75000000  0.18710000  1
  O  O6  1  0.09741000  0.25000000  0.37588000  1
  O  O7  1  0.90259000  0.75000000  0.62412000  1
