# generated using pymatgen
data_MgB7
_symmetry_space_group_name_H-M   'P 1'
_cell_length_a   5.97398800
_cell_length_b   8.11211400
_cell_length_c   10.46739000
_cell_angle_alpha   90.00000000
_cell_angle_beta   90.00000000
_cell_angle_gamma   90.00000000
_symmetry_Int_Tables_number   1
_chemical_formula_structural   MgB7
_chemical_formula_sum   'Mg8 B56'
_cell_volume   507.26721764
_cell_formula_units_Z   8
loop_
 _symmetry_equiv_pos_site_id
 _symmetry_equiv_pos_as_xyz
  1  'x, y, z'
loop_
 _atom_site_type_symbol
 _atom_site_label
 _atom_site_symmetry_multiplicity
 _atom_site_fract_x
 _atom_site_fract_y
 _atom_site_fract_z
 _atom_site_occupancy
  Mg  Mg0  1  0.75000000  0.25000000  0.75000000  1
  Mg  Mg1  1  0.25000000  0.25000000  0.75000000  1
  Mg  Mg2  1  0.50000000  0.36384700  0.25000000  1
  Mg  Mg3  1  0.50000000  0.63615300  0.75000000  1
  Mg  Mg4  1  0.25000000  0.75000000  0.25000000  1
  Mg  Mg5  1  0.75000000  0.75000000  0.25000000  1
  Mg  Mg6  1  0.00000000  0.86384700  0.75000000  1
  Mg  Mg7  1  0.00000000  0.13615300  0.25000000  1
  B  B8  1  0.50000000  0.61506300  0.14094500  1
  B  B9  1  0.24644950  0.54467150  0.07784450  1
  B  B10  1  0.75355050  0.54467150  0.07784450  1
  B  B11  1  0.00000000  0.32361000  0.91777200  1
  B  B12  1  0.00000000  0.47572200  0.16607400  1
  B  B13  1  0.15543600  0.33679200  0.06354200  1
  B  B14  1  0.84456400  0.33679200  0.06354200  1
  B  B15  1  0.50000000  0.17639000  0.91777200  1
  B  B16  1  0.50000000  0.61506300  0.35905500  1
  B  B17  1  0.00000000  0.47572200  0.33392600  1
  B  B18  1  0.24644950  0.54467150  0.42215550  1
  B  B19  1  0.75355050  0.54467150  0.42215550  1
  B  B20  1  0.65543600  0.16320800  0.06354200  1
  B  B21  1  0.34456400  0.16320800  0.06354200  1
  B  B22  1  0.65543600  0.83679200  0.93645800  1
  B  B23  1  0.34456400  0.83679200  0.93645800  1
  B  B24  1  0.24644950  0.45532850  0.57784450  1
  B  B25  1  0.75355050  0.45532850  0.57784450  1
  B  B26  1  0.00000000  0.52427800  0.66607400  1
  B  B27  1  0.50000000  0.38493700  0.64094500  1
  B  B28  1  0.50000000  0.82361000  0.08222800  1
  B  B29  1  0.15543600  0.66320800  0.93645800  1
  B  B30  1  0.84456400  0.66320800  0.93645800  1
  B  B31  1  0.00000000  0.52427800  0.83392600  1
  B  B32  1  0.00000000  0.67639000  0.08222800  1
  B  B33  1  0.24644950  0.45532850  0.92215550  1
  B  B34  1  0.75355050  0.45532850  0.92215550  1
  B  B35  1  0.50000000  0.38493700  0.85905500  1
  B  B36  1  0.00000000  0.11506300  0.64094500  1
  B  B37  1  0.74644950  0.04467150  0.57784450  1
  B  B38  1  0.25355050  0.04467150  0.57784450  1
  B  B39  1  0.50000000  0.82361000  0.41777200  1
  B  B40  1  0.50000000  0.97572200  0.66607400  1
  B  B41  1  0.65543600  0.83679200  0.56354200  1
  B  B42  1  0.34456400  0.83679200  0.56354200  1
  B  B43  1  0.00000000  0.67639000  0.41777200  1
  B  B44  1  0.00000000  0.11506300  0.85905500  1
  B  B45  1  0.50000000  0.97572200  0.83392600  1
  B  B46  1  0.74644950  0.04467150  0.92215550  1
  B  B47  1  0.25355050  0.04467150  0.92215550  1
  B  B48  1  0.15543600  0.66320800  0.56354200  1
  B  B49  1  0.84456400  0.66320800  0.56354200  1
  B  B50  1  0.15543600  0.33679200  0.43645800  1
  B  B51  1  0.84456400  0.33679200  0.43645800  1
  B  B52  1  0.74644950  0.95532850  0.07784450  1
  B  B53  1  0.25355050  0.95532850  0.07784450  1
  B  B54  1  0.50000000  0.02427800  0.16607400  1
  B  B55  1  0.00000000  0.88493700  0.14094500  1
  B  B56  1  0.00000000  0.32361000  0.58222800  1
  B  B57  1  0.65543600  0.16320800  0.43645800  1
  B  B58  1  0.34456400  0.16320800  0.43645800  1
  B  B59  1  0.50000000  0.02427800  0.33392600  1
  B  B60  1  0.50000000  0.17639000  0.58222800  1
  B  B61  1  0.74644950  0.95532850  0.42215550  1
  B  B62  1  0.25355050  0.95532850  0.42215550  1
  B  B63  1  0.00000000  0.88493700  0.35905500  1
