# generated using pymatgen
data_Cs3BP2
_symmetry_space_group_name_H-M   'P 1'
_cell_length_a   9.97107000
_cell_length_b   9.83017800
_cell_length_c   9.91498589
_cell_angle_alpha   90.00000000
_cell_angle_beta   109.87687282
_cell_angle_gamma   90.00000000
_symmetry_Int_Tables_number   1
_chemical_formula_structural   Cs3BP2
_chemical_formula_sum   'Cs12 B4 P8'
_cell_volume   913.94406717
_cell_formula_units_Z   4
loop_
 _symmetry_equiv_pos_site_id
 _symmetry_equiv_pos_as_xyz
  1  'x, y, z'
loop_
 _atom_site_type_symbol
 _atom_site_label
 _atom_site_symmetry_multiplicity
 _atom_site_fract_x
 _atom_site_fract_y
 _atom_site_fract_z
 _atom_site_occupancy
  Cs  Cs0  1  0.00000000  0.65782200  0.25000000  1
  Cs  Cs1  1  0.00000000  0.34217800  0.75000000  1
  Cs  Cs2  1  0.29530100  0.55174700  0.02134500  1
  Cs  Cs3  1  0.70469900  0.55174700  0.47865500  1
  Cs  Cs4  1  0.70469900  0.44825300  0.97865500  1
  Cs  Cs5  1  0.29530100  0.44825300  0.52134500  1
  Cs  Cs6  1  0.50000000  0.15782200  0.25000000  1
  Cs  Cs7  1  0.50000000  0.84217800  0.75000000  1
  Cs  Cs8  1  0.79530100  0.05174700  0.02134500  1
  Cs  Cs9  1  0.20469900  0.05174700  0.47865500  1
  Cs  Cs10  1  0.20469900  0.94825300  0.97865500  1
  Cs  Cs11  1  0.79530100  0.94825300  0.52134500  1
  B  B12  1  0.00000000  0.28744100  0.25000000  1
  B  B13  1  0.00000000  0.71255900  0.75000000  1
  B  B14  1  0.50000000  0.78744100  0.25000000  1
  B  B15  1  0.50000000  0.21255900  0.75000000  1
  P  P16  1  0.88187550  0.28456750  0.35034900  1
  P  P17  1  0.11812450  0.28456750  0.14965100  1
  P  P18  1  0.88187550  0.71543250  0.85034900  1
  P  P19  1  0.11812450  0.71543250  0.64965100  1
  P  P20  1  0.38187550  0.78456750  0.35034900  1
  P  P21  1  0.61812450  0.78456750  0.14965100  1
  P  P22  1  0.38187550  0.21543250  0.85034900  1
  P  P23  1  0.61812450  0.21543250  0.64965100  1
