# generated using pymatgen
data_LaCoN3
_symmetry_space_group_name_H-M   'P 1'
_cell_length_a   10.80031000
_cell_length_b   4.06963000
_cell_length_c   7.51158005
_cell_angle_alpha   90.00000000
_cell_angle_beta   103.34822333
_cell_angle_gamma   90.00000000
_symmetry_Int_Tables_number   1
_chemical_formula_structural   LaCoN3
_chemical_formula_sum   'La4 Co4 N12'
_cell_volume   321.23921033
_cell_formula_units_Z   4
loop_
 _symmetry_equiv_pos_site_id
 _symmetry_equiv_pos_as_xyz
  1  'x, y, z'
loop_
 _atom_site_type_symbol
 _atom_site_label
 _atom_site_symmetry_multiplicity
 _atom_site_fract_x
 _atom_site_fract_y
 _atom_site_fract_z
 _atom_site_occupancy
  La  La0  1  0.66407800  0.50000000  0.80320600  1
  La  La1  1  0.83592200  0.00000000  0.19679400  1
  La  La2  1  0.16407800  0.00000000  0.80320600  1
  La  La3  1  0.33592200  0.50000000  0.19679400  1
  Co  Co4  1  0.95874100  0.50000000  0.84554600  1
  Co  Co5  1  0.54125900  0.00000000  0.15445400  1
  Co  Co6  1  0.45874100  0.00000000  0.84554600  1
  Co  Co7  1  0.04125900  0.50000000  0.15445400  1
  N  N8  1  0.63382800  0.00000000  0.97429100  1
  N  N9  1  0.86617200  0.50000000  0.02570900  1
  N  N10  1  0.89408200  0.50000000  0.61904900  1
  N  N11  1  0.64851500  0.00000000  0.54038000  1
  N  N12  1  0.60591800  0.00000000  0.38095100  1
  N  N13  1  0.85148500  0.50000000  0.45962000  1
  N  N14  1  0.13382800  0.50000000  0.97429100  1
  N  N15  1  0.36617200  0.00000000  0.02570900  1
  N  N16  1  0.39408200  0.00000000  0.61904900  1
  N  N17  1  0.14851500  0.50000000  0.54038000  1
  N  N18  1  0.10591800  0.50000000  0.38095100  1
  N  N19  1  0.35148500  0.00000000  0.45962000  1
