# generated using pymatgen
data_SmOF
_symmetry_space_group_name_H-M   'P 1'
_cell_length_a   3.92734206
_cell_length_b   3.92734206
_cell_length_c   19.61676676
_cell_angle_alpha   90.00000000
_cell_angle_beta   90.00000000
_cell_angle_gamma   120.00000000
_symmetry_Int_Tables_number   1
_chemical_formula_structural   SmOF
_chemical_formula_sum   'Sm6 O6 F6'
_cell_volume   262.03271499
_cell_formula_units_Z   6
loop_
 _symmetry_equiv_pos_site_id
 _symmetry_equiv_pos_as_xyz
  1  'x, y, z'
loop_
 _atom_site_type_symbol
 _atom_site_label
 _atom_site_symmetry_multiplicity
 _atom_site_fract_x
 _atom_site_fract_y
 _atom_site_fract_z
 _atom_site_occupancy
  Sm  Sm0  1  0.00000000  0.00000000  0.24127700  1
  Sm  Sm1  1  0.66666667  0.33333333  0.09205633  1
  Sm  Sm2  1  0.66666667  0.33333333  0.57461033  1
  Sm  Sm3  1  0.33333333  0.66666667  0.42538967  1
  Sm  Sm4  1  0.33333333  0.66666667  0.90794367  1
  Sm  Sm5  1  0.00000000  0.00000000  0.75872300  1
  O  O6  1  0.00000000  0.00000000  0.12203100  1
  O  O7  1  0.66666667  0.33333333  0.21130233  1
  O  O8  1  0.66666667  0.33333333  0.45536433  1
  O  O9  1  0.33333333  0.66666667  0.54463567  1
  O  O10  1  0.33333333  0.66666667  0.78869767  1
  O  O11  1  0.00000000  0.00000000  0.87796900  1
  F  F12  1  0.33333333  0.66666667  0.29649867  1
  F  F13  1  0.33333333  0.66666667  0.03683467  1
  F  F14  1  0.00000000  0.00000000  0.62983200  1
  F  F15  1  0.00000000  0.00000000  0.37016800  1
  F  F16  1  0.66666667  0.33333333  0.96316533  1
  F  F17  1  0.66666667  0.33333333  0.70350133  1
