# generated using pymatgen
data_BiI4
_symmetry_space_group_name_H-M   'P 1'
_cell_length_a   8.70694200
_cell_length_b   9.09907000
_cell_length_c   13.47357600
_cell_angle_alpha   90.00000000
_cell_angle_beta   90.00000000
_cell_angle_gamma   90.00000000
_symmetry_Int_Tables_number   1
_chemical_formula_structural   BiI4
_chemical_formula_sum   'Bi4 I16'
_cell_volume   1067.44506567
_cell_formula_units_Z   4
loop_
 _symmetry_equiv_pos_site_id
 _symmetry_equiv_pos_as_xyz
  1  'x, y, z'
loop_
 _atom_site_type_symbol
 _atom_site_label
 _atom_site_symmetry_multiplicity
 _atom_site_fract_x
 _atom_site_fract_y
 _atom_site_fract_z
 _atom_site_occupancy
  Bi  Bi0  1  0.25000000  0.75000000  0.75000000  1
  Bi  Bi1  1  0.75000000  0.75000000  0.75000000  1
  Bi  Bi2  1  0.75000000  0.25000000  0.25000000  1
  Bi  Bi3  1  0.25000000  0.25000000  0.25000000  1
  I  I4  1  0.81359500  0.75000000  0.97729300  1
  I  I5  1  0.18640500  0.75000000  0.97729300  1
  I  I6  1  0.00000000  0.99234800  0.71978600  1
  I  I7  1  0.00000000  0.50765200  0.71978600  1
  I  I8  1  0.50000000  0.99234800  0.78021400  1
  I  I9  1  0.31359500  0.75000000  0.52270700  1
  I  I10  1  0.50000000  0.50765200  0.78021400  1
  I  I11  1  0.68640500  0.75000000  0.52270700  1
  I  I12  1  0.31359500  0.25000000  0.47729300  1
  I  I13  1  0.68640500  0.25000000  0.47729300  1
  I  I14  1  0.50000000  0.49234800  0.21978600  1
  I  I15  1  0.50000000  0.00765200  0.21978600  1
  I  I16  1  0.00000000  0.49234800  0.28021400  1
  I  I17  1  0.81359500  0.25000000  0.02270700  1
  I  I18  1  0.00000000  0.00765200  0.28021400  1
  I  I19  1  0.18640500  0.25000000  0.02270700  1
