# generated using pymatgen
data_WO3
_symmetry_space_group_name_H-M   'P 1'
_cell_length_a   5.35073100
_cell_length_b   5.41828100
_cell_length_c   7.61885400
_cell_angle_alpha   90.00000000
_cell_angle_beta   90.00000000
_cell_angle_gamma   90.00000000
_symmetry_Int_Tables_number   1
_chemical_formula_structural   WO3
_chemical_formula_sum   'W4 O12'
_cell_volume   220.88401798
_cell_formula_units_Z   4
loop_
 _symmetry_equiv_pos_site_id
 _symmetry_equiv_pos_as_xyz
  1  'x, y, z'
loop_
 _atom_site_type_symbol
 _atom_site_label
 _atom_site_symmetry_multiplicity
 _atom_site_fract_x
 _atom_site_fract_y
 _atom_site_fract_z
 _atom_site_occupancy
  W  W0  1  0.50000000  0.50000000  0.00000000  1
  W  W1  1  0.00000000  0.00000000  0.50000000  1
  W  W2  1  0.50000000  0.50000000  0.50000000  1
  W  W3  1  0.00000000  0.00000000  0.00000000  1
  O  O4  1  0.71932300  0.78056400  0.46852800  1
  O  O5  1  0.78067700  0.28056400  0.03147200  1
  O  O6  1  0.28067700  0.21943600  0.53147200  1
  O  O7  1  0.21932300  0.71943600  0.96852800  1
  O  O8  1  0.21932300  0.71943600  0.53147200  1
  O  O9  1  0.28067700  0.21943600  0.96852800  1
  O  O10  1  0.78067700  0.28056400  0.46852800  1
  O  O11  1  0.71932300  0.78056400  0.03147200  1
  O  O12  1  0.06330200  0.99278600  0.25000000  1
  O  O13  1  0.43669800  0.49278600  0.25000000  1
  O  O14  1  0.56330200  0.50721400  0.75000000  1
  O  O15  1  0.93669800  0.00721400  0.75000000  1
